support/cimhub_docker/python_scripts/optimized_dss/archive/dss/Master.dss
clear
New circuit.psu_13_node_feeder
~ basekv=115 pu=1.00 phases=3 bus1=SourceBus
~ Angle=30
~ MVAsc3=20000 MVASC1=21000

// Feeder Head xfmrs config:
New XfmrCode.SubXfmr Phases=3 Windings=2  XHL=(8 1000 /)
~ wdg=1 conn=delta kv=115  kva=5000  %r=(.5 1000 /)
~ wdg=2 conn=wye   kv=4.16 kva=5000  %r=(.5 1000 /)

New XfmrCode.FdrXfmr Phases=3   Windings=2  XHL=2  %NoLoadLoss=0.6 %imag=1.1
~ wdg=1 conn=Wye kv=4.16   kva=500   %r=.55
~ wdg=2 conn=Wye kv=0.480  kva=500   %r=.55

New XfmrCode.RegLeg  phases=1 xhl=0.01 kvas=[1666 1666] kvs=[2.4 2.4] %LoadLoss=0.01


//Sub Xfmr:
New Transformer.trans_source_N650 XfmrCode=SubXfmr Buses=[SourceBus N650]
New Transformer.XFM1 XfmrCode=FdrXfmr Buses=[N633 N634]

//Reg legs:
New Transformer.Reg1 XfmrCode=RegLeg Bank=Reg Buses=[N650.1 RG60.1]
New Transformer.Reg2 XfmrCode=RegLeg Bank=Reg Buses=[N650.2 RG60.2]
New Transformer.Reg3 XfmrCode=RegLeg Bank=Reg Buses=[N650.3 RG60.3]

//Reg Controls

new regcontrol.Reg1  transformer=Reg1 winding=2  vreg=122  band=2  ptratio=20 ctprim=700  R=3   X=9 
new regcontrol.Reg2  transformer=Reg2 winding=2  vreg=122  band=2  ptratio=20 ctprim=700  R=3   X=9 
new regcontrol.Reg3  transformer=Reg3 winding=2  vreg=122  band=2  ptratio=20 ctprim=700  R=3   X=9


// Line codes:
New Linecode.2P_OH_Code0 units=km nphases=2
~ rmatrix = [0.086666667 | 0.02907197  0.087405303]
~ xmatrix = [0.204166667 | 0.072897727  0.201723485]
~ cmatrix = [2.569829596 | -0.52995137  2.597460011]

New Linecode.3P_OH_Code1 units=km nphases=3
~ rmatrix = [0.086666667 | 0.029545455 0.088371212 | 0.02907197 0.029924242 0.087405303]
~ xmatrix = [0.204166667 | 0.095018939 0.198522727 | 0.072897727 0.080227273 0.201723485]
~ cmatrix = [2.851710072 | -0.920293787  3.004631862 | -0.350755566  -0.585011253 2.71134756]


New Linecode.2P_OH_Code2 units=km nphases=2
~ rmatrix = [0.086666667 | 0.02907197  0.087405303]
~ xmatrix = [0.204166667 | 0.072897727  0.201723485]
~ cmatrix = [2.569829596 | -0.52995137  2.597460011]

New Linecode.1P_OH_Code3 units=km nphases=1
~ rmatrix = [0.251742424]
~ xmatrix = [0.255208333]
~ cmatrix = [2.270366128]


New Linecode.1P_UG_Code4 units=km nphases=1
~ rmatrix = [0.251742424]
~ xmatrix = [0.255208333]
~ cmatrix = [2.270366128]

New Linecode.3P_UG_Code5 units=km nphases=3
~ rmatrix = [0.086666667 | 0.029545455 0.088371212 | 0.02907197 0.029924242 0.087405303]
~ xmatrix = [0.204166667 | 0.095018939 0.198522727 | 0.072897727 0.080227273 0.201723485]
~ cmatrix = [2.851710072 | -0.920293787  3.004631862 | -0.350755566  -0.585011253 2.71134756]

New Linecode.3P_OH_Code6 units=km nphases=3
~ rmatrix = [0.086666667 | 0.029545455 0.088371212 | 0.02907197 0.029924242 0.087405303]
~ xmatrix = [0.204166667 | 0.095018939 0.198522727 | 0.072897727 0.080227273 0.201723485]
~ cmatrix = [2.851710072 | -0.920293787  3.004631862 | -0.350755566  -0.585011253 2.71134756]

New Linecode.3P_Code7 units=km nphases=3
~ rmatrix = [0.086666667 | 0.029545455 0.088371212 | 0.02907197 0.029924242 0.087405303]
~ xmatrix = [0.204166667 | 0.095018939 0.198522727 | 0.072897727 0.080227273 0.201723485]
~ cmatrix = [2.851710072 | -0.920293787  3.004631862 | -0.350755566  -0.585011253 2.71134756]

New Linecode.1P_OH_Code8 units=km nphases=1
~ rmatrix = [0.251742424]
~ xmatrix = [0.255208333]
~ cmatrix = [2.270366128]

New Linecode.1P_OH_Code9 units=km nphases=1
~ rmatrix = [0.251742424]
~ xmatrix = [0.255208333]
~ cmatrix = [2.270366128]

New Linecode.2P_Code10 units=km nphases=2
~ rmatrix = [0.086666667 | 0.02907197  0.087405303]
~ xmatrix = [0.204166667 | 0.072897727  0.201723485]
~ cmatrix = [2.569829596 | -0.52995137  2.597460011]


// Line Objects:
New Line.OL630-632 Units=km Length=0.6096
~ bus1=RG60.1.2.3
~ bus2=N632.1.2.3 switch=n  phases=3 Linecode=3P_OH_Code1

New Line.OL632-645 Units=km Length=0.1524
~ bus1=N632.2.3
~ bus2=N645.2.3 switch=n  phases=2 Linecode=2P_OH_Code0

New Line.OL645-646 Units=km Length=0.09144
~ bus1=N645.2.3
~ bus2=N646.2.3 switch=n  phases=2 Linecode=2P_OH_Code0

New Line.OL632-6321 Units=km Length=0.1524
~ bus1=N632.1.2.3
~ bus2=N6321.1.2.3 switch=n  phases=3 Linecode=3P_OH_Code1

New Line.OL6321-671 Units=km Length=0.457
~ bus1=N6321.1.2.3
~ bus2=N671.1.2.3 switch=n  phases=3 Linecode=3P_OH_Code1

New Line.OL671-680 Units=km Length=0.3048
~ bus1=N671.1.2.3
~ bus2=N680.1.2.3 switch=n  phases=3 Linecode=3P_OH_Code1

New Line.OL671-684 Units=km Length=0.09144
~ bus1=N671.1.3
~ bus2=N684.1.3 switch=n  phases=2 Linecode=2P_OH_Code2

New Line.ol684611 Units=km Length=0.09144
~ bus1=N684.3
~ bus2=N611.3 phases=1 Linecode=1P_OH_Code3

New Line.UL684-652 Units=km Length=0.24384
~ bus1=N684.1
~ bus2=N652.1 switch=n  phases=1 Linecode=1P_UG_Code4

New Line.UL692-675 Units=km Length=0.1524
~ bus1=N692.1.2.3
~ bus2=N675.1.2.3 switch=n  phases=3 Linecode=3P_UG_Code5

New Line.UL632-633 Units=km Length=0.1524
~ bus1=N632.1.2.3
~ bus2=N633.1.2.3 switch=n  phases=3 Linecode=3P_OH_Code6

New Line.S671-692 Units=km Length=0.001
~ bus1=N671.1.2.3
~ bus2=N692.1.2.3 switch=n phases=3 Linecode=3P_Code7

New Line.OL_652_A length=50 units=ft
~ bus1=N652.1
~ bus2=meter_652_A.1 switch=n  phases=1 Linecode=1P_OH_Code8

New Line.OL_611_C length=50 units=ft
~ bus1=N611.3
~ bus2=meter_611_C.3 switch=n  phases=1 Linecode=1P_OH_Code3

New Line.OL_684_A length=50 units=ft
~ bus1=N684.1
~ bus2=meter_684_A.1 switch=n  phases=1 Linecode=1P_OH_Code8

New Line.OL_684_C length=50 units=ft
~ bus1=N684.3
~ bus2=meter_684_C.3 switch=n  phases=1 Linecode=1P_OH_Code3

New Line.OL_645_B length=50 units=ft
~ bus1=N645.2
~ bus2=meter_645_B.2 switch=n  phases=1 Linecode=1P_OH_Code9

New Line.OL_645_C length=50 units=ft
~ bus1=N645.3
~ bus2=meter_645_C.3 switch=n  phases=1 Linecode=1P_OH_Code3

New Line.OL_633_A length=50 units=ft
~ bus1=N633.1
~ bus2=meter_633_A.1 switch=n  phases=1 Linecode=1P_OH_Code8

New Line.OL_633_B length=50 units=ft
~ bus1=N633.2
~ bus2=meter_633_B.2 switch=n  phases=1 Linecode=1P_OH_Code9

New Line.OL_633_C length=50 units=ft
~ bus1=N633.3
~ bus2=meter_633_C.3 switch=n  phases=1 Linecode=1P_OH_Code3

New Line.OL_632_A length=50 units=ft
~ bus1=N632.1
~ bus2=meter_632_A.1 switch=n  phases=1 Linecode=1P_OH_Code8

New Line.OL_632_B length=50 units=ft
~ bus1=N632.2
~ bus2=meter_632_B.2 switch=n  phases=1 Linecode=1P_OH_Code9

New Line.OL_632_C length=50 units=ft
~ bus1=N632.3
~ bus2=meter_632_C.3 switch=n  phases=1 Linecode=1P_OH_Code3

New Line.OL_692_A length=50 units=ft
~ bus1=N692.1
~ bus2=meter_692_A.1 switch=n  phases=1 Linecode=1P_OH_Code8

New Line.OL_692_B length=50 units=ft
~ bus1=N692.2
~ bus2=meter_692_B.2 switch=n  phases=1 Linecode=1P_OH_Code9

New Line.OL_692_C length=50 units=ft
~ bus1=N692.3
~ bus2=meter_692_C.3 switch=n  phases=1 Linecode=1P_OH_Code3

New Line.OL_675_A length=50 units=ft
~ bus1=N675.1
~ bus2=meter_675_A.1 switch=n  phases=1 Linecode=1P_OH_Code8

New Line.OL_675_B length=50 units=ft
~ bus1=N675.2
~ bus2=meter_675_B.2 switch=n  phases=1 Linecode=1P_OH_Code9

New Line.OL_675_C length=50 units=ft
~ bus1=N675.3
~ bus2=meter_675_C.3 switch=n  phases=1 Linecode=1P_OH_Code3

New Line.OL_671_A length=50 units=ft
~ bus1=N671.1
~ bus2=meter_671_A.1 switch=n  phases=1 Linecode=1P_OH_Code8

New Line.OL_671_B length=50 units=ft
~ bus1=N671.2
~ bus2=meter_671_B.2 switch=n  phases=1 Linecode=1P_OH_Code9

New Line.OL_671_C length=50 units=ft
~ bus1=N671.3
~ bus2=meter_671_C.3 switch=n  phases=1 Linecode=1P_OH_Code3

New Line.OL_680_A length=50 units=ft
~ bus1=N680.1
~ bus2=meter_680_A.1 switch=n  phases=1 Linecode=1P_OH_Code8

New Line.OL_680_B length=50 units=ft
~ bus1=N680.2
~ bus2=meter_680_B.2 switch=n  phases=1 Linecode=1P_OH_Code9

New Line.OL_680_C length=50 units=ft
~ bus1=N680.3
~ bus2=meter_680_C.3 switch=n  phases=1 Linecode=1P_OH_Code3

New Line.OL_652_A_xfmr_652_A_1 length=50 units=ft
~ bus1=meter_652_A.1
~ bus2=xfmr_meter_652_A_1.1 switch=n  phases=1 Linecode=1P_OH_Code8

New Line.OL_652_A_xfmr_652_A_2 length=50 units=ft
~ bus1=meter_652_A.1
~ bus2=xfmr_meter_652_A_2.1 switch=n  phases=1 Linecode=1P_OH_Code8

New Line.OL_652_A_xfmr_652_A_3 length=50 units=ft
~ bus1=meter_652_A.1
~ bus2=xfmr_meter_652_A_3.1 switch=n  phases=1 Linecode=1P_OH_Code8

New Line.OL_652_A_xfmr_652_A_4 length=50 units=ft
~ bus1=meter_652_A.1
~ bus2=xfmr_meter_652_A_4.1 switch=n  phases=1 Linecode=1P_OH_Code8

New Line.OL_652_A_xfmr_652_A_5 length=50 units=ft
~ bus1=meter_652_A.1
~ bus2=xfmr_meter_652_A_5.1 switch=n  phases=1 Linecode=1P_OH_Code8

New Line.OL_611_C_xfmr_611_C_1 length=50 units=ft
~ bus1=meter_611_C.3
~ bus2=xfmr_meter_611_C_1.3 switch=n  phases=1 Linecode=1P_OH_Code3

New Line.OL_611_C_xfmr_611_C_2 length=50 units=ft
~ bus1=meter_611_C.3
~ bus2=xfmr_meter_611_C_2.3 switch=n  phases=1 Linecode=1P_OH_Code3

New Line.OL_611_C_xfmr_611_C_3 length=50 units=ft
~ bus1=meter_611_C.3
~ bus2=xfmr_meter_611_C_3.3 switch=n  phases=1 Linecode=1P_OH_Code3

New Line.OL_611_C_xfmr_611_C_4 length=50 units=ft
~ bus1=meter_611_C.3
~ bus2=xfmr_meter_611_C_4.3 switch=n  phases=1 Linecode=1P_OH_Code3

New Line.OL_611_C_xfmr_611_C_5 length=50 units=ft
~ bus1=meter_611_C.3
~ bus2=xfmr_meter_611_C_5.3 switch=n  phases=1 Linecode=1P_OH_Code3

New Line.OL_684_C_xfmr_684_C_1 length=50 units=ft
~ bus1=meter_684_C.3
~ bus2=xfmr_meter_684_C_1.3 switch=n  phases=1 Linecode=1P_OH_Code3

New Line.OL_684_C_xfmr_684_C_2 length=50 units=ft
~ bus1=meter_684_C.3
~ bus2=xfmr_meter_684_C_2.3 switch=n  phases=1 Linecode=1P_OH_Code3

New Line.OL_684_C_xfmr_684_C_3 length=50 units=ft
~ bus1=meter_684_C.3
~ bus2=xfmr_meter_684_C_3.3 switch=n  phases=1 Linecode=1P_OH_Code3

New Line.OL_684_C_xfmr_684_C_4 length=50 units=ft
~ bus1=meter_684_C.3
~ bus2=xfmr_meter_684_C_4.3 switch=n  phases=1 Linecode=1P_OH_Code3

New Line.OL_684_C_xfmr_684_C_5 length=50 units=ft
~ bus1=meter_684_C.3
~ bus2=xfmr_meter_684_C_5.3 switch=n  phases=1 Linecode=1P_OH_Code3

New Line.OL_684_A_xfmr_684_A_1 length=50 units=ft
~ bus1=meter_684_A.1
~ bus2=xfmr_meter_684_A_1.1 switch=n  phases=1 Linecode=1P_OH_Code8

New Line.OL_684_A_xfmr_684_A_2 length=50 units=ft
~ bus1=meter_684_A.1
~ bus2=xfmr_meter_684_A_2.1 switch=n  phases=1 Linecode=1P_OH_Code8

New Line.OL_684_A_xfmr_684_A_3 length=50 units=ft
~ bus1=meter_684_A.1
~ bus2=xfmr_meter_684_A_3.1 switch=n  phases=1 Linecode=1P_OH_Code8

New Line.OL_684_A_xfmr_684_A_4 length=50 units=ft
~ bus1=meter_684_A.1
~ bus2=xfmr_meter_684_A_4.1 switch=n  phases=1 Linecode=1P_OH_Code8

New Line.OL_684_A_xfmr_684_A_5 length=50 units=ft
~ bus1=meter_684_A.1
~ bus2=xfmr_meter_684_A_5.1 switch=n  phases=1 Linecode=1P_OH_Code8

New Line.OL_645_B_xfmr_645_B_1 length=50 units=ft
~ bus1=meter_645_B.2
~ bus2=xfmr_meter_645_B_1.2 switch=n  phases=1 Linecode=1P_OH_Code9

New Line.OL_645_B_xfmr_645_B_2 length=50 units=ft
~ bus1=meter_645_B.2
~ bus2=xfmr_meter_645_B_2.2 switch=n  phases=1 Linecode=1P_OH_Code9

New Line.OL_645_B_xfmr_645_B_3 length=50 units=ft
~ bus1=meter_645_B.2
~ bus2=xfmr_meter_645_B_3.2 switch=n  phases=1 Linecode=1P_OH_Code9

New Line.OL_645_B_xfmr_645_B_4 length=50 units=ft
~ bus1=meter_645_B.2
~ bus2=xfmr_meter_645_B_4.2 switch=n  phases=1 Linecode=1P_OH_Code9

New Line.OL_645_B_xfmr_645_B_5 length=50 units=ft
~ bus1=meter_645_B.2
~ bus2=xfmr_meter_645_B_5.2 switch=n  phases=1 Linecode=1P_OH_Code9

New Line.OL_645_C_xfmr_645_C_1 length=50 units=ft
~ bus1=meter_645_C.3
~ bus2=xfmr_meter_645_C_1.3 switch=n  phases=1 Linecode=1P_OH_Code3

New Line.OL_645_C_xfmr_645_C_2 length=50 units=ft
~ bus1=meter_645_C.3
~ bus2=xfmr_meter_645_C_2.3 switch=n  phases=1 Linecode=1P_OH_Code3

New Line.OL_645_C_xfmr_645_C_3 length=50 units=ft
~ bus1=meter_645_C.3
~ bus2=xfmr_meter_645_C_3.3 switch=n  phases=1 Linecode=1P_OH_Code3

New Line.OL_645_C_xfmr_645_C_4 length=50 units=ft
~ bus1=meter_645_C.3
~ bus2=xfmr_meter_645_C_4.3 switch=n  phases=1 Linecode=1P_OH_Code3

New Line.OL_645_C_xfmr_645_C_5 length=50 units=ft
~ bus1=meter_645_C.3
~ bus2=xfmr_meter_645_C_5.3 switch=n  phases=1 Linecode=1P_OH_Code3

New Line.OL_633_A_xfmr_633_A_1 length=50 units=ft
~ bus1=meter_633_A.1
~ bus2=xfmr_meter_633_A_1.1 switch=n  phases=1 Linecode=1P_OH_Code8

New Line.OL_633_A_xfmr_633_A_2 length=50 units=ft
~ bus1=meter_633_A.1
~ bus2=xfmr_meter_633_A_2.1 switch=n  phases=1 Linecode=1P_OH_Code8

New Line.OL_633_A_xfmr_633_A_3 length=50 units=ft
~ bus1=meter_633_A.1
~ bus2=xfmr_meter_633_A_3.1 switch=n  phases=1 Linecode=1P_OH_Code8

New Line.OL_633_A_xfmr_633_A_4 length=50 units=ft
~ bus1=meter_633_A.1
~ bus2=xfmr_meter_633_A_4.1 switch=n  phases=1 Linecode=1P_OH_Code8

New Line.OL_633_A_xfmr_633_A_5 length=50 units=ft
~ bus1=meter_633_A.1
~ bus2=xfmr_meter_633_A_5.1 switch=n  phases=1 Linecode=1P_OH_Code8

New Line.OL_633_B_xfmr_633_B_1 length=50 units=ft
~ bus1=meter_633_B.2
~ bus2=xfmr_meter_633_B_1.2 switch=n  phases=1 Linecode=1P_OH_Code9

New Line.OL_633_B_xfmr_633_B_2 length=50 units=ft
~ bus1=meter_633_B.2
~ bus2=xfmr_meter_633_B_2.2 switch=n  phases=1 Linecode=1P_OH_Code9

New Line.OL_633_B_xfmr_633_B_3 length=50 units=ft
~ bus1=meter_633_B.2
~ bus2=xfmr_meter_633_B_3.2 switch=n  phases=1 Linecode=1P_OH_Code9

New Line.OL_633_B_xfmr_633_B_4 length=50 units=ft
~ bus1=meter_633_B.2
~ bus2=xfmr_meter_633_B_4.2 switch=n  phases=1 Linecode=1P_OH_Code9

New Line.OL_633_B_xfmr_633_B_5 length=50 units=ft
~ bus1=meter_633_B.2
~ bus2=xfmr_meter_633_B_5.2 switch=n  phases=1 Linecode=1P_OH_Code9

New Line.OL_633_C_xfmr_633_C_1 length=50 units=ft
~ bus1=meter_633_C.3
~ bus2=xfmr_meter_633_C_1.3 switch=n  phases=1 Linecode=1P_OH_Code3

New Line.OL_633_C_xfmr_633_C_2 length=50 units=ft
~ bus1=meter_633_C.3
~ bus2=xfmr_meter_633_C_2.3 switch=n  phases=1 Linecode=1P_OH_Code3

New Line.OL_633_C_xfmr_633_C_3 length=50 units=ft
~ bus1=meter_633_C.3
~ bus2=xfmr_meter_633_C_3.3 switch=n  phases=1 Linecode=1P_OH_Code3

New Line.OL_633_C_xfmr_633_C_4 length=50 units=ft
~ bus1=meter_633_C.3
~ bus2=xfmr_meter_633_C_4.3 switch=n  phases=1 Linecode=1P_OH_Code3

New Line.OL_633_C_xfmr_633_C_5 length=50 units=ft
~ bus1=meter_633_C.3
~ bus2=xfmr_meter_633_C_5.3 switch=n  phases=1 Linecode=1P_OH_Code3

New Line.OL_632_A_xfmr_632_A_1 length=50 units=ft
~ bus1=meter_632_A.1
~ bus2=xfmr_meter_632_A_1.1 switch=n  phases=1 Linecode=1P_OH_Code8

New Line.OL_632_A_xfmr_632_A_2 length=50 units=ft
~ bus1=meter_632_A.1
~ bus2=xfmr_meter_632_A_2.1 switch=n  phases=1 Linecode=1P_OH_Code8

New Line.OL_632_A_xfmr_632_A_3 length=50 units=ft
~ bus1=meter_632_A.1
~ bus2=xfmr_meter_632_A_3.1 switch=n  phases=1 Linecode=1P_OH_Code8

New Line.OL_632_A_xfmr_632_A_4 length=50 units=ft
~ bus1=meter_632_A.1
~ bus2=xfmr_meter_632_A_4.1 switch=n  phases=1 Linecode=1P_OH_Code8

New Line.OL_632_A_xfmr_632_A_5 length=50 units=ft
~ bus1=meter_632_A.1
~ bus2=xfmr_meter_632_A_5.1 switch=n  phases=1 Linecode=1P_OH_Code8

New Line.OL_632_B_xfmr_632_B_1 length=50 units=ft
~ bus1=meter_632_B.2
~ bus2=xfmr_meter_632_B_1.2 switch=n  phases=1 Linecode=1P_OH_Code9

New Line.OL_632_B_xfmr_632_B_2 length=50 units=ft
~ bus1=meter_632_B.2
~ bus2=xfmr_meter_632_B_2.2 switch=n  phases=1 Linecode=1P_OH_Code9 

New Line.OL_632_B_xfmr_632_B_3 length=50 units=ft
~ bus1=meter_632_B.2
~ bus2=xfmr_meter_632_B_3.2 switch=n  phases=1 Linecode=1P_OH_Code9

New Line.OL_632_B_xfmr_632_B_4 length=50 units=ft
~ bus1=meter_632_B.2
~ bus2=xfmr_meter_632_B_4.2 switch=n  phases=1 Linecode=1P_OH_Code9

New Line.OL_632_B_xfmr_632_B_5 length=50 units=ft
~ bus1=meter_632_B.2
~ bus2=xfmr_meter_632_B_5.2 switch=n  phases=1 Linecode=1P_OH_Code9

New Line.OL_632_C_xfmr_632_C_1 length=50 units=ft
~ bus1=meter_632_C.3
~ bus2=xfmr_meter_632_C_1.3 switch=n  phases=1 Linecode=1P_OH_Code3

New Line.OL_632_C_xfmr_632_C_2 length=50 units=ft
~ bus1=meter_632_C.3
~ bus2=xfmr_meter_632_C_2.3 switch=n  phases=1 Linecode=1P_OH_Code3

New Line.OL_632_C_xfmr_632_C_3 length=50 units=ft
~ bus1=meter_632_C.3
~ bus2=xfmr_meter_632_C_3.3 switch=n  phases=1 Linecode=1P_OH_Code3

New Line.OL_632_C_xfmr_632_C_4 length=50 units=ft
~ bus1=meter_632_C.3
~ bus2=xfmr_meter_632_C_4.3 switch=n  phases=1 Linecode=1P_OH_Code3

New Line.OL_632_C_xfmr_632_C_5 length=50 units=ft
~ bus1=meter_632_C.3
~ bus2=xfmr_meter_632_C_5.3 switch=n  phases=1 Linecode=1P_OH_Code3

New Line.OL_692_A_xfmr_692_A_1 length=50 units=ft
~ bus1=meter_692_A.1
~ bus2=xfmr_meter_692_A_1.1 switch=n  phases=1 Linecode=1P_OH_Code8

New Line.OL_692_A_xfmr_692_A_2 length=50 units=ft
~ bus1=meter_692_A.1
~ bus2=xfmr_meter_692_A_2.1 switch=n  phases=1 Linecode=1P_OH_Code8

New Line.OL_692_A_xfmr_692_A_3 length=50 units=ft
~ bus1=meter_692_A.1
~ bus2=xfmr_meter_692_A_3.1 switch=n  phases=1 Linecode=1P_OH_Code8

New Line.OL_692_A_xfmr_692_A_4 length=50 units=ft
~ bus1=meter_692_A.1
~ bus2=xfmr_meter_692_A_4.1 switch=n  phases=1 Linecode=1P_OH_Code8

New Line.OL_692_A_xfmr_692_A_5 length=50 units=ft
~ bus1=meter_692_A.1
~ bus2=xfmr_meter_692_A_5.1 switch=n  phases=1 Linecode=1P_OH_Code8

New Line.OL_692_B_xfmr_692_B_1 length=50 units=ft
~ bus1=meter_692_B.2
~ bus2=xfmr_meter_692_B_1.2 switch=n  phases=1 Linecode=1P_OH_Code9

New Line.OL_692_B_xfmr_692_B_2 length=50 units=ft
~ bus1=meter_692_B.2
~ bus2=xfmr_meter_692_B_2.2 switch=n  phases=1 Linecode=1P_OH_Code9

New Line.OL_692_B_xfmr_692_B_3 length=50 units=ft
~ bus1=meter_692_B.2
~ bus2=xfmr_meter_692_B_3.2 switch=n  phases=1 Linecode=1P_OH_Code9

New Line.OL_692_B_xfmr_692_B_4 length=50 units=ft
~ bus1=meter_692_B.2
~ bus2=xfmr_meter_692_B_4.2 switch=n  phases=1 Linecode=1P_OH_Code9

New Line.OL_692_B_xfmr_692_B_5 length=50 units=ft
~ bus1=meter_692_B.2
~ bus2=xfmr_meter_692_B_5.2 switch=n  phases=1 Linecode=1P_OH_Code9

New Line.OL_692_C_xfmr_692_C_1 length=50 units=ft
~ bus1=meter_692_C.3
~ bus2=xfmr_meter_692_C_1.3 switch=n  phases=1 Linecode=1P_OH_Code3

New Line.OL_692_C_xfmr_692_C_2 length=50 units=ft
~ bus1=meter_692_C.3
~ bus2=xfmr_meter_692_C_2.3 switch=n  phases=1 Linecode=1P_OH_Code3

New Line.OL_692_C_xfmr_692_C_3 length=50 units=ft
~ bus1=meter_692_C.3
~ bus2=xfmr_meter_692_C_3.3 switch=n  phases=1 Linecode=1P_OH_Code3

New Line.OL_692_C_xfmr_692_C_4 length=50 units=ft
~ bus1=meter_692_C.3
~ bus2=xfmr_meter_692_C_4.3 switch=n  phases=1 Linecode=1P_OH_Code3

New Line.OL_692_C_xfmr_692_C_5 length=50 units=ft
~ bus1=meter_692_C.3
~ bus2=xfmr_meter_692_C_5.3 switch=n  phases=1 Linecode=1P_OH_Code3

New Line.OL_675_A_xfmr_675_A_1 length=50 units=ft
~ bus1=meter_675_A.1
~ bus2=xfmr_meter_675_A_1.1 switch=n  phases=1 Linecode=1P_OH_Code8

New Line.OL_675_A_xfmr_675_A_2 length=50 units=ft
~ bus1=meter_675_A.1
~ bus2=xfmr_meter_675_A_2.1 switch=n  phases=1 Linecode=1P_OH_Code8

New Line.OL_675_A_xfmr_675_A_3 length=50 units=ft
~ bus1=meter_675_A.1
~ bus2=xfmr_meter_675_A_3.1 switch=n  phases=1 Linecode=1P_OH_Code8

New Line.OL_675_A_xfmr_675_A_4 length=50 units=ft
~ bus1=meter_675_A.1
~ bus2=xfmr_meter_675_A_4.1 switch=n  phases=1 Linecode=1P_OH_Code8

New Line.OL_675_A_xfmr_675_A_5 length=50 units=ft
~ bus1=meter_675_A.1
~ bus2=xfmr_meter_675_A_5.1 switch=n  phases=1 Linecode=1P_OH_Code8

New Line.OL_675_B_xfmr_675_B_1 length=50 units=ft
~ bus1=meter_675_B.2
~ bus2=xfmr_meter_675_B_1.2 switch=n  phases=1 Linecode=1P_OH_Code9

New Line.OL_675_B_xfmr_675_B_2 length=50 units=ft
~ bus1=meter_675_B.2
~ bus2=xfmr_meter_675_B_2.2 switch=n  phases=1 Linecode=1P_OH_Code9

New Line.OL_675_B_xfmr_675_B_3 length=50 units=ft
~ bus1=meter_675_B.2
~ bus2=xfmr_meter_675_B_3.2 switch=n  phases=1 Linecode=1P_OH_Code9

New Line.OL_675_B_xfmr_675_B_4 length=50 units=ft
~ bus1=meter_675_B.2
~ bus2=xfmr_meter_675_B_4.2 switch=n  phases=1 Linecode=1P_OH_Code9

New Line.OL_675_B_xfmr_675_B_5 length=50 units=ft
~ bus1=meter_675_B.2
~ bus2=xfmr_meter_675_B_5.2 switch=n  phases=1 Linecode=1P_OH_Code9

New Line.OL_675_C_xfmr_675_C_1 length=50 units=ft
~ bus1=meter_675_C.3
~ bus2=xfmr_meter_675_C_1.3 switch=n  phases=1 Linecode=1P_OH_Code3

New Line.OL_675_C_xfmr_675_C_2 length=50 units=ft
~ bus1=meter_675_C.3
~ bus2=xfmr_meter_675_C_2.3 switch=n  phases=1 Linecode=1P_OH_Code3

New Line.OL_675_C_xfmr_675_C_3 length=50 units=ft
~ bus1=meter_675_C.3
~ bus2=xfmr_meter_675_C_3.3 switch=n  phases=1 Linecode=1P_OH_Code3

New Line.OL_675_C_xfmr_675_C_4 length=50 units=ft
~ bus1=meter_675_C.3
~ bus2=xfmr_meter_675_C_4.3 switch=n  phases=1 Linecode=1P_OH_Code3

New Line.OL_675_C_xfmr_675_C_5 length=50 units=ft
~ bus1=meter_675_C.3
~ bus2=xfmr_meter_675_C_5.3 switch=n  phases=1 Linecode=1P_OH_Code3

New Line.OL_671_A_xfmr_671_A_1 length=50 units=ft
~ bus1=meter_671_A.1
~ bus2=xfmr_meter_671_A_1.1 switch=n  phases=1 Linecode=1P_OH_Code8

New Line.OL_671_A_xfmr_671_A_2 length=50 units=ft
~ bus1=meter_671_A.1
~ bus2=xfmr_meter_671_A_2.1 switch=n  phases=1 Linecode=1P_OH_Code8

New Line.OL_671_A_xfmr_671_A_3 length=50 units=ft
~ bus1=meter_671_A.1
~ bus2=xfmr_meter_671_A_3.1 switch=n  phases=1 Linecode=1P_OH_Code8

New Line.OL_671_A_xfmr_671_A_4 length=50 units=ft
~ bus1=meter_671_A.1
~ bus2=xfmr_meter_671_A_4.1 switch=n  phases=1 Linecode=1P_OH_Code8

New Line.OL_671_A_xfmr_671_A_5 length=50 units=ft
~ bus1=meter_671_A.1
~ bus2=xfmr_meter_671_A_5.1 switch=n  phases=1 Linecode=1P_OH_Code8

New Line.OL_671_B_xfmr_671_B_1 length=50 units=ft
~ bus1=meter_671_B.2
~ bus2=xfmr_meter_671_B_1.2 switch=n  phases=1 Linecode=1P_OH_Code9

New Line.OL_671_B_xfmr_671_B_2 length=50 units=ft
~ bus1=meter_671_B.2
~ bus2=xfmr_meter_671_B_2.2 switch=n  phases=1 Linecode=1P_OH_Code9

New Line.OL_671_B_xfmr_671_B_3 length=50 units=ft
~ bus1=meter_671_B.2
~ bus2=xfmr_meter_671_B_3.2 switch=n  phases=1 Linecode=1P_OH_Code9

New Line.OL_671_B_xfmr_671_B_4 length=50 units=ft
~ bus1=meter_671_B.2
~ bus2=xfmr_meter_671_B_4.2 switch=n  phases=1 Linecode=1P_OH_Code9

New Line.OL_671_B_xfmr_671_B_5 length=50 units=ft
~ bus1=meter_671_B.2
~ bus2=xfmr_meter_671_B_5.2 switch=n  phases=1 Linecode=1P_OH_Code9

New Line.OL_671_C_xfmr_671_C_1 length=50 units=ft
~ bus1=meter_671_C.3
~ bus2=xfmr_meter_671_C_1.3 switch=n  phases=1 Linecode=1P_OH_Code3

New Line.OL_671_C_xfmr_671_C_2 length=50 units=ft
~ bus1=meter_671_C.3
~ bus2=xfmr_meter_671_C_2.3 switch=n  phases=1 Linecode=1P_OH_Code3

New Line.OL_671_C_xfmr_671_C_3 length=50 units=ft
~ bus1=meter_671_C.3
~ bus2=xfmr_meter_671_C_3.3 switch=n  phases=1 Linecode=1P_OH_Code3

New Line.OL_671_C_xfmr_671_C_4 length=50 units=ft
~ bus1=meter_671_C.3
~ bus2=xfmr_meter_671_C_4.3 switch=n  phases=1 Linecode=1P_OH_Code3

New Line.OL_671_C_xfmr_671_C_5 length=50 units=ft
~ bus1=meter_671_C.3
~ bus2=xfmr_meter_671_C_5.3 switch=n  phases=1 Linecode=1P_OH_Code3

New Line.OL_680_A_xfmr_680_A_1 length=50 units=ft
~ bus1=meter_680_A.1
~ bus2=xfmr_meter_680_A_1.1 switch=n  phases=1 Linecode=1P_OH_Code8

New Line.OL_680_A_xfmr_680_A_2 length=50 units=ft
~ bus1=meter_680_A.1
~ bus2=xfmr_meter_680_A_2.1 switch=n  phases=1 Linecode=1P_OH_Code8

New Line.OL_680_A_xfmr_680_A_3 length=50 units=ft
~ bus1=meter_680_A.1
~ bus2=xfmr_meter_680_A_3.1 switch=n  phases=1 Linecode=1P_OH_Code8

New Line.OL_680_A_xfmr_680_A_4 length=50 units=ft
~ bus1=meter_680_A.1
~ bus2=xfmr_meter_680_A_4.1 switch=n  phases=1 Linecode=1P_OH_Code8

New Line.OL_680_A_xfmr_680_A_5 length=50 units=ft
~ bus1=meter_680_A.1
~ bus2=xfmr_meter_680_A_5.1 switch=n  phases=1 Linecode=1P_OH_Code8

New Line.OL_680_B_xfmr_680_B_1 length=50 units=ft
~ bus1=meter_680_B.2
~ bus2=xfmr_meter_680_B_1.2 switch=n  phases=1 Linecode=1P_OH_Code9

New Line.OL_680_B_xfmr_680_B_2 length=50 units=ft
~ bus1=meter_680_B.2
~ bus2=xfmr_meter_680_B_2.2 switch=n  phases=1 Linecode=1P_OH_Code9

New Line.OL_680_B_xfmr_680_B_3 length=50 units=ft
~ bus1=meter_680_B.2
~ bus2=xfmr_meter_680_B_3.2 switch=n  phases=1 Linecode=1P_OH_Code9

New Line.OL_680_B_xfmr_680_B_4 length=50 units=ft
~ bus1=meter_680_B.2
~ bus2=xfmr_meter_680_B_4.2 switch=n  phases=1 Linecode=1P_OH_Code9

New Line.OL_680_B_xfmr_680_B_5 length=50 units=ft
~ bus1=meter_680_B.2
~ bus2=xfmr_meter_680_B_5.2 switch=n  phases=1 Linecode=1P_OH_Code9

New Line.OL_680_C_xfmr_680_C_1 length=50 units=ft
~ bus1=meter_680_C.3
~ bus2=xfmr_meter_680_C_1.3 switch=n  phases=1 Linecode=1P_OH_Code3

New Line.OL_680_C_xfmr_680_C_2 length=50 units=ft
~ bus1=meter_680_C.3
~ bus2=xfmr_meter_680_C_2.3 switch=n  phases=1 Linecode=1P_OH_Code3

New Line.OL_680_C_xfmr_680_C_3 length=50 units=ft
~ bus1=meter_680_C.3
~ bus2=xfmr_meter_680_C_3.3 switch=n  phases=1 Linecode=1P_OH_Code3

New Line.OL_680_C_xfmr_680_C_4 length=50 units=ft
~ bus1=meter_680_C.3
~ bus2=xfmr_meter_680_C_4.3 switch=n  phases=1 Linecode=1P_OH_Code3

New Line.OL_680_C_xfmr_680_C_5 length=50 units=ft
~ bus1=meter_680_C.3
~ bus2=xfmr_meter_680_C_5.3 switch=n  phases=1 Linecode=1P_OH_Code3

New Transformer.xfmr_652_A_1 phases=1 windings=3
~ wdg=1 bus=xfmr_meter_652_A_1.1 Kv=2.4 kva=10000.0 %r=0.003
~ wdg=2 bus=trip_node_652_A_1.1.0 Kv=0.12 kva=1000.0 %r=0.006
~ wdg=3 bus=trip_node_652_A_1.0.2 Kv=0.12 kva=1000.0 %r=0.006 Xhl=2.04  Xht=2.04  Xlt=1.36

New Transformer.xfmr_652_A_2 phases=1 windings=3
~ wdg=1 bus=xfmr_meter_652_A_2.1 Kv=2.4 kva=10000.0 %r=0.003
~ wdg=2 bus=trip_node_652_A_2.1.0 Kv=0.12 kva=1000.0 %r=0.006
~ wdg=3 bus=trip_node_652_A_2.0.2 Kv=0.12 kva=1000.0 %r=0.006 Xhl=2.04  Xht=2.04  Xlt=1.36

New Transformer.xfmr_652_A_3 phases=1 windings=3
~ wdg=1 bus=xfmr_meter_652_A_3.1 Kv=2.4 kva=10000.0 %r=0.003
~ wdg=2 bus=trip_node_652_A_3.1.0 Kv=0.12 kva=1000.0 %r=0.006
~ wdg=3 bus=trip_node_652_A_3.0.2 Kv=0.12 kva=1000.0 %r=0.006 Xhl=2.04  Xht=2.04  Xlt=1.36

New Transformer.xfmr_652_A_4 phases=1 windings=3
~ wdg=1 bus=xfmr_meter_652_A_4.1 Kv=2.4 kva=10000.0 %r=0.003
~ wdg=2 bus=trip_node_652_A_4.1.0 Kv=0.12 kva=1000.0 %r=0.006
~ wdg=3 bus=trip_node_652_A_4.0.2 Kv=0.12 kva=1000.0 %r=0.006 Xhl=2.04  Xht=2.04  Xlt=1.36

New Transformer.xfmr_652_A_5 phases=1 windings=3
~ wdg=1 bus=xfmr_meter_652_A_5.1 Kv=2.4 kva=10000.0 %r=0.003
~ wdg=2 bus=trip_node_652_A_5.1.0 Kv=0.12 kva=1000.0 %r=0.006
~ wdg=3 bus=trip_node_652_A_5.0.2 Kv=0.12 kva=1000.0 %r=0.006 Xhl=2.04  Xht=2.04  Xlt=1.36

New Transformer.xfmr_611_C_1 phases=1 windings=3
~ wdg=1 bus=xfmr_meter_611_C_1.3 Kv=2.4 kva=10000.0 %r=0.003
~ wdg=2 bus=trip_node_611_C_1.1.0 Kv=0.12 kva=1000.0 %r=0.006
~ wdg=3 bus=trip_node_611_C_1.0.2 Kv=0.12 kva=1000.0 %r=0.006 Xhl=2.04  Xht=2.04  Xlt=1.36

New Transformer.xfmr_611_C_2 phases=1 windings=3
~ wdg=1 bus=xfmr_meter_611_C_2.3 Kv=2.4 kva=10000.0 %r=0.003
~ wdg=2 bus=trip_node_611_C_2.1.0 Kv=0.12 kva=1000.0 %r=0.006
~ wdg=3 bus=trip_node_611_C_2.0.2 Kv=0.12 kva=1000.0 %r=0.006 Xhl=2.04  Xht=2.04  Xlt=1.36

New Transformer.xfmr_611_C_3 phases=1 windings=3
~ wdg=1 bus=xfmr_meter_611_C_3.3 Kv=2.4 kva=10000.0 %r=0.003
~ wdg=2 bus=trip_node_611_C_3.1.0 Kv=0.12 kva=1000.0 %r=0.006
~ wdg=3 bus=trip_node_611_C_3.0.2 Kv=0.12 kva=1000.0 %r=0.006 Xhl=2.04  Xht=2.04  Xlt=1.36

New Transformer.xfmr_611_C_4 phases=1 windings=3
~ wdg=1 bus=xfmr_meter_611_C_4.3 Kv=2.4 kva=10000.0 %r=0.003
~ wdg=2 bus=trip_node_611_C_4.1.0 Kv=0.12 kva=1000.0 %r=0.006
~ wdg=3 bus=trip_node_611_C_4.0.2 Kv=0.12 kva=1000.0 %r=0.006 Xhl=2.04  Xht=2.04  Xlt=1.36

New Transformer.xfmr_611_C_5 phases=1 windings=3
~ wdg=1 bus=xfmr_meter_611_C_5.3 Kv=2.4 kva=10000.0 %r=0.003
~ wdg=2 bus=trip_node_611_C_5.1.0 Kv=0.12 kva=1000.0 %r=0.006
~ wdg=3 bus=trip_node_611_C_5.0.2 Kv=0.12 kva=1000.0 %r=0.006 Xhl=2.04  Xht=2.04  Xlt=1.36

New Transformer.xfmr_684_C_1 phases=1 windings=3
~ wdg=1 bus=xfmr_meter_684_C_1.3 Kv=2.4 kva=10000.0 %r=0.003
~ wdg=2 bus=trip_node_684_C_1.1.0 Kv=0.12 kva=1000.0 %r=0.006
~ wdg=3 bus=trip_node_684_C_1.0.2 Kv=0.12 kva=1000.0 %r=0.006 Xhl=2.04  Xht=2.04  Xlt=1.36

New Transformer.xfmr_684_C_2 phases=1 windings=3
~ wdg=1 bus=xfmr_meter_684_C_2.3 Kv=2.4 kva=10000.0 %r=0.003
~ wdg=2 bus=trip_node_684_C_2.1.0 Kv=0.12 kva=1000.0 %r=0.006
~ wdg=3 bus=trip_node_684_C_2.0.2 Kv=0.12 kva=1000.0 %r=0.006 Xhl=2.04  Xht=2.04  Xlt=1.36

New Transformer.xfmr_684_C_3 phases=1 windings=3
~ wdg=1 bus=xfmr_meter_684_C_3.3 Kv=2.4 kva=10000.0 %r=0.003
~ wdg=2 bus=trip_node_684_C_3.1.0 Kv=0.12 kva=1000.0 %r=0.006
~ wdg=3 bus=trip_node_684_C_3.0.2 Kv=0.12 kva=1000.0 %r=0.006 Xhl=2.04  Xht=2.04  Xlt=1.36

New Transformer.xfmr_684_C_4 phases=1 windings=3
~ wdg=1 bus=xfmr_meter_684_C_4.3 Kv=2.4 kva=10000.0 %r=0.003
~ wdg=2 bus=trip_node_684_C_4.1.0 Kv=0.12 kva=1000.0 %r=0.006
~ wdg=3 bus=trip_node_684_C_4.0.2 Kv=0.12 kva=1000.0 %r=0.006 Xhl=2.04  Xht=2.04  Xlt=1.36

New Transformer.xfmr_684_C_5 phases=1 windings=3
~ wdg=1 bus=xfmr_meter_684_C_5.3 Kv=2.4 kva=10000.0 %r=0.003
~ wdg=2 bus=trip_node_684_C_5.1.0 Kv=0.12 kva=1000.0 %r=0.006
~ wdg=3 bus=trip_node_684_C_5.0.2 Kv=0.12 kva=1000.0 %r=0.006 Xhl=2.04  Xht=2.04  Xlt=1.36

New Transformer.xfmr_684_A_1 phases=1 windings=3
~ wdg=1 bus=xfmr_meter_684_A_1.1 Kv=2.4 kva=10000.0 %r=0.003
~ wdg=2 bus=trip_node_684_A_1.1.0 Kv=0.12 kva=1000.0 %r=0.006
~ wdg=3 bus=trip_node_684_A_1.0.2 Kv=0.12 kva=1000.0 %r=0.006 Xhl=2.04  Xht=2.04  Xlt=1.36

New Transformer.xfmr_684_A_2 phases=1 windings=3
~ wdg=1 bus=xfmr_meter_684_A_2.1 Kv=2.4 kva=10000.0 %r=0.003
~ wdg=2 bus=trip_node_684_A_2.1.0 Kv=0.12 kva=1000.0 %r=0.006
~ wdg=3 bus=trip_node_684_A_2.0.2 Kv=0.12 kva=1000.0 %r=0.006 Xhl=2.04  Xht=2.04  Xlt=1.36

New Transformer.xfmr_684_A_3 phases=1 windings=3
~ wdg=1 bus=xfmr_meter_684_A_3.1 Kv=2.4 kva=10000.0 %r=0.003
~ wdg=2 bus=trip_node_684_A_3.1.0 Kv=0.12 kva=1000.0 %r=0.006
~ wdg=3 bus=trip_node_684_A_3.0.2 Kv=0.12 kva=1000.0 %r=0.006 Xhl=2.04  Xht=2.04  Xlt=1.36

New Transformer.xfmr_684_A_4 phases=1 windings=3
~ wdg=1 bus=xfmr_meter_684_A_4.1 Kv=2.4 kva=10000.0 %r=0.003
~ wdg=2 bus=trip_node_684_A_4.1.0 Kv=0.12 kva=1000.0 %r=0.006
~ wdg=3 bus=trip_node_684_A_4.0.2 Kv=0.12 kva=1000.0 %r=0.006 Xhl=2.04  Xht=2.04  Xlt=1.36

New Transformer.xfmr_684_A_5 phases=1 windings=3
~ wdg=1 bus=xfmr_meter_684_A_5.1 Kv=2.4 kva=10000.0 %r=0.003
~ wdg=2 bus=trip_node_684_A_5.1.0 Kv=0.12 kva=1000.0 %r=0.006
~ wdg=3 bus=trip_node_684_A_5.0.2 Kv=0.12 kva=1000.0 %r=0.006 Xhl=2.04  Xht=2.04  Xlt=1.36

New Transformer.xfmr_645_B_1 phases=1 windings=3
~ wdg=1 bus=xfmr_meter_645_B_1.2 Kv=2.4 kva=10000.0 %r=0.003
~ wdg=2 bus=trip_node_645_B_1.1.0 Kv=0.12 kva=1000.0 %r=0.006
~ wdg=3 bus=trip_node_645_B_1.0.2 Kv=0.12 kva=1000.0 %r=0.006 Xhl=2.04  Xht=2.04  Xlt=1.36

New Transformer.xfmr_645_B_2 phases=1 windings=3
~ wdg=1 bus=xfmr_meter_645_B_2.2 Kv=2.4 kva=10000.0 %r=0.003
~ wdg=2 bus=trip_node_645_B_2.1.0 Kv=0.12 kva=1000.0 %r=0.006
~ wdg=3 bus=trip_node_645_B_2.0.2 Kv=0.12 kva=1000.0 %r=0.006 Xhl=2.04  Xht=2.04  Xlt=1.36

New Transformer.xfmr_645_B_3 phases=1 windings=3
~ wdg=1 bus=xfmr_meter_645_B_3.2 Kv=2.4 kva=10000.0 %r=0.003
~ wdg=2 bus=trip_node_645_B_3.1.0 Kv=0.12 kva=1000.0 %r=0.006
~ wdg=3 bus=trip_node_645_B_3.0.2 Kv=0.12 kva=1000.0 %r=0.006 Xhl=2.04  Xht=2.04  Xlt=1.36

New Transformer.xfmr_645_B_4 phases=1 windings=3
~ wdg=1 bus=xfmr_meter_645_B_4.2 Kv=2.4 kva=10000.0 %r=0.003
~ wdg=2 bus=trip_node_645_B_4.1.0 Kv=0.12 kva=1000.0 %r=0.006
~ wdg=3 bus=trip_node_645_B_4.0.2 Kv=0.12 kva=1000.0 %r=0.006 Xhl=2.04  Xht=2.04  Xlt=1.36

New Transformer.xfmr_645_B_5 phases=1 windings=3
~ wdg=1 bus=xfmr_meter_645_B_5.2 Kv=2.4 kva=10000.0 %r=0.003
~ wdg=2 bus=trip_node_645_B_5.1.0 Kv=0.12 kva=1000.0 %r=0.006
~ wdg=3 bus=trip_node_645_B_5.0.2 Kv=0.12 kva=1000.0 %r=0.006 Xhl=2.04  Xht=2.04  Xlt=1.36

New Transformer.xfmr_645_C_1 phases=1 windings=3
~ wdg=1 bus=xfmr_meter_645_C_1.3 Kv=2.4 kva=10000.0 %r=0.003
~ wdg=2 bus=trip_node_645_C_1.1.0 Kv=0.12 kva=1000.0 %r=0.006
~ wdg=3 bus=trip_node_645_C_1.0.2 Kv=0.12 kva=1000.0 %r=0.006 Xhl=2.04  Xht=2.04  Xlt=1.36

New Transformer.xfmr_645_C_2 phases=1 windings=3
~ wdg=1 bus=xfmr_meter_645_C_2.3 Kv=2.4 kva=10000.0 %r=0.003
~ wdg=2 bus=trip_node_645_C_2.1.0 Kv=0.12 kva=1000.0 %r=0.006
~ wdg=3 bus=trip_node_645_C_2.0.2 Kv=0.12 kva=1000.0 %r=0.006 Xhl=2.04  Xht=2.04  Xlt=1.36

New Transformer.xfmr_645_C_3 phases=1 windings=3
~ wdg=1 bus=xfmr_meter_645_C_3.3 Kv=2.4 kva=10000.0 %r=0.003
~ wdg=2 bus=trip_node_645_C_3.1.0 Kv=0.12 kva=1000.0 %r=0.006
~ wdg=3 bus=trip_node_645_C_3.0.2 Kv=0.12 kva=1000.0 %r=0.006 Xhl=2.04  Xht=2.04  Xlt=1.36

New Transformer.xfmr_645_C_4 phases=1 windings=3
~ wdg=1 bus=xfmr_meter_645_C_4.3 Kv=2.4 kva=10000.0 %r=0.003
~ wdg=2 bus=trip_node_645_C_4.1.0 Kv=0.12 kva=1000.0 %r=0.006
~ wdg=3 bus=trip_node_645_C_4.0.2 Kv=0.12 kva=1000.0 %r=0.006 Xhl=2.04  Xht=2.04  Xlt=1.36

New Transformer.xfmr_645_C_5 phases=1 windings=3
~ wdg=1 bus=xfmr_meter_645_C_5.3 Kv=2.4 kva=10000.0 %r=0.003
~ wdg=2 bus=trip_node_645_C_5.1.0 Kv=0.12 kva=1000.0 %r=0.006
~ wdg=3 bus=trip_node_645_C_5.0.2 Kv=0.12 kva=1000.0 %r=0.006 Xhl=2.04  Xht=2.04  Xlt=1.36

New Transformer.xfmr_633_A_1 phases=1 windings=3
~ wdg=1 bus=xfmr_meter_633_A_1.1 Kv=2.4 kva=10000.0 %r=0.003
~ wdg=2 bus=trip_node_633_A_1.1.0 Kv=0.12 kva=1000.0 %r=0.006
~ wdg=3 bus=trip_node_633_A_1.0.2 Kv=0.12 kva=1000.0 %r=0.006 Xhl=2.04  Xht=2.04  Xlt=1.36

New Transformer.xfmr_633_A_2 phases=1 windings=3
~ wdg=1 bus=xfmr_meter_633_A_2.1 Kv=2.4 kva=10000.0 %r=0.003
~ wdg=2 bus=trip_node_633_A_2.1.0 Kv=0.12 kva=1000.0 %r=0.006
~ wdg=3 bus=trip_node_633_A_2.0.2 Kv=0.12 kva=1000.0 %r=0.006 Xhl=2.04  Xht=2.04  Xlt=1.36

New Transformer.xfmr_633_A_3 phases=1 windings=3
~ wdg=1 bus=xfmr_meter_633_A_3.1 Kv=2.4 kva=10000.0 %r=0.003
~ wdg=2 bus=trip_node_633_A_3.1.0 Kv=0.12 kva=1000.0 %r=0.006
~ wdg=3 bus=trip_node_633_A_3.0.2 Kv=0.12 kva=1000.0 %r=0.006 Xhl=2.04  Xht=2.04  Xlt=1.36

New Transformer.xfmr_633_A_4 phases=1 windings=3
~ wdg=1 bus=xfmr_meter_633_A_4.1 Kv=2.4 kva=10000.0 %r=0.003
~ wdg=2 bus=trip_node_633_A_4.1.0 Kv=0.12 kva=1000.0 %r=0.006
~ wdg=3 bus=trip_node_633_A_4.0.2 Kv=0.12 kva=1000.0 %r=0.006 Xhl=2.04  Xht=2.04  Xlt=1.36

New Transformer.xfmr_633_A_5 phases=1 windings=3
~ wdg=1 bus=xfmr_meter_633_A_5.1 Kv=2.4 kva=10000.0 %r=0.003
~ wdg=2 bus=trip_node_633_A_5.1.0 Kv=0.12 kva=1000.0 %r=0.006
~ wdg=3 bus=trip_node_633_A_5.0.2 Kv=0.12 kva=1000.0 %r=0.006 Xhl=2.04  Xht=2.04  Xlt=1.36

New Transformer.xfmr_633_B_1 phases=1 windings=3
~ wdg=1 bus=xfmr_meter_633_B_1.2 Kv=2.4 kva=10000.0 %r=0.003
~ wdg=2 bus=trip_node_633_B_1.1.0 Kv=0.12 kva=1000.0 %r=0.006
~ wdg=3 bus=trip_node_633_B_1.0.2 Kv=0.12 kva=1000.0 %r=0.006 Xhl=2.04  Xht=2.04  Xlt=1.36

New Transformer.xfmr_633_B_2 phases=1 windings=3
~ wdg=1 bus=xfmr_meter_633_B_2.2 Kv=2.4 kva=10000.0 %r=0.003
~ wdg=2 bus=trip_node_633_B_2.1.0 Kv=0.12 kva=1000.0 %r=0.006
~ wdg=3 bus=trip_node_633_B_2.0.2 Kv=0.12 kva=1000.0 %r=0.006 Xhl=2.04  Xht=2.04  Xlt=1.36

New Transformer.xfmr_633_B_3 phases=1 windings=3
~ wdg=1 bus=xfmr_meter_633_B_3.2 Kv=2.4 kva=10000.0 %r=0.003
~ wdg=2 bus=trip_node_633_B_3.1.0 Kv=0.12 kva=1000.0 %r=0.006
~ wdg=3 bus=trip_node_633_B_3.0.2 Kv=0.12 kva=1000.0 %r=0.006 Xhl=2.04  Xht=2.04  Xlt=1.36

New Transformer.xfmr_633_B_4 phases=1 windings=3
~ wdg=1 bus=xfmr_meter_633_B_4.2 Kv=2.4 kva=10000.0 %r=0.003
~ wdg=2 bus=trip_node_633_B_4.1.0 Kv=0.12 kva=1000.0 %r=0.006
~ wdg=3 bus=trip_node_633_B_4.0.2 Kv=0.12 kva=1000.0 %r=0.006 Xhl=2.04  Xht=2.04  Xlt=1.36

New Transformer.xfmr_633_B_5 phases=1 windings=3
~ wdg=1 bus=xfmr_meter_633_B_5.2 Kv=2.4 kva=10000.0 %r=0.003
~ wdg=2 bus=trip_node_633_B_5.1.0 Kv=0.12 kva=1000.0 %r=0.006
~ wdg=3 bus=trip_node_633_B_5.0.2 Kv=0.12 kva=1000.0 %r=0.006 Xhl=2.04  Xht=2.04  Xlt=1.36

New Transformer.xfmr_633_C_1 phases=1 windings=3
~ wdg=1 bus=xfmr_meter_633_C_1.3 Kv=2.4 kva=10000.0 %r=0.003
~ wdg=2 bus=trip_node_633_C_1.1.0 Kv=0.12 kva=1000.0 %r=0.006
~ wdg=3 bus=trip_node_633_C_1.0.2 Kv=0.12 kva=1000.0 %r=0.006 Xhl=2.04  Xht=2.04  Xlt=1.36

New Transformer.xfmr_633_C_2 phases=1 windings=3
~ wdg=1 bus=xfmr_meter_633_C_2.3 Kv=2.4 kva=10000.0 %r=0.003
~ wdg=2 bus=trip_node_633_C_2.1.0 Kv=0.12 kva=1000.0 %r=0.006
~ wdg=3 bus=trip_node_633_C_2.0.2 Kv=0.12 kva=1000.0 %r=0.006 Xhl=2.04  Xht=2.04  Xlt=1.36

New Transformer.xfmr_633_C_3 phases=1 windings=3
~ wdg=1 bus=xfmr_meter_633_C_3.3 Kv=2.4 kva=10000.0 %r=0.003
~ wdg=2 bus=trip_node_633_C_3.1.0 Kv=0.12 kva=1000.0 %r=0.006
~ wdg=3 bus=trip_node_633_C_3.0.2 Kv=0.12 kva=1000.0 %r=0.006 Xhl=2.04  Xht=2.04  Xlt=1.36

New Transformer.xfmr_633_C_4 phases=1 windings=3
~ wdg=1 bus=xfmr_meter_633_C_4.3 Kv=2.4 kva=10000.0 %r=0.003
~ wdg=2 bus=trip_node_633_C_4.1.0 Kv=0.12 kva=1000.0 %r=0.006
~ wdg=3 bus=trip_node_633_C_4.0.2 Kv=0.12 kva=1000.0 %r=0.006 Xhl=2.04  Xht=2.04  Xlt=1.36

New Transformer.xfmr_633_C_5 phases=1 windings=3
~ wdg=1 bus=xfmr_meter_633_C_5.3 Kv=2.4 kva=10000.0 %r=0.003
~ wdg=2 bus=trip_node_633_C_5.1.0 Kv=0.12 kva=1000.0 %r=0.006
~ wdg=3 bus=trip_node_633_C_5.0.2 Kv=0.12 kva=1000.0 %r=0.006 Xhl=2.04  Xht=2.04  Xlt=1.36

New Transformer.xfmr_632_A_1 phases=1 windings=3
~ wdg=1 bus=xfmr_meter_632_A_1.1 Kv=2.4 kva=10000.0 %r=0.003
~ wdg=2 bus=trip_node_632_A_1.1.0 Kv=0.12 kva=1000.0 %r=0.006
~ wdg=3 bus=trip_node_632_A_1.0.2 Kv=0.12 kva=1000.0 %r=0.006 Xhl=2.04  Xht=2.04  Xlt=1.36

New Transformer.xfmr_632_A_2 phases=1 windings=3
~ wdg=1 bus=xfmr_meter_632_A_2.1 Kv=2.4 kva=10000.0 %r=0.003
~ wdg=2 bus=trip_node_632_A_2.1.0 Kv=0.12 kva=1000.0 %r=0.006
~ wdg=3 bus=trip_node_632_A_2.0.2 Kv=0.12 kva=1000.0 %r=0.006 Xhl=2.04  Xht=2.04  Xlt=1.36

New Transformer.xfmr_632_A_3 phases=1 windings=3
~ wdg=1 bus=xfmr_meter_632_A_3.1 Kv=2.4 kva=10000.0 %r=0.003
~ wdg=2 bus=trip_node_632_A_3.1.0 Kv=0.12 kva=1000.0 %r=0.006
~ wdg=3 bus=trip_node_632_A_3.0.2 Kv=0.12 kva=1000.0 %r=0.006 Xhl=2.04  Xht=2.04  Xlt=1.36

New Transformer.xfmr_632_A_4 phases=1 windings=3
~ wdg=1 bus=xfmr_meter_632_A_4.1 Kv=2.4 kva=10000.0 %r=0.003
~ wdg=2 bus=trip_node_632_A_4.1.0 Kv=0.12 kva=1000.0 %r=0.006
~ wdg=3 bus=trip_node_632_A_4.0.2 Kv=0.12 kva=1000.0 %r=0.006 Xhl=2.04  Xht=2.04  Xlt=1.36

New Transformer.xfmr_632_A_5 phases=1 windings=3
~ wdg=1 bus=xfmr_meter_632_A_5.1 Kv=2.4 kva=10000.0 %r=0.003
~ wdg=2 bus=trip_node_632_A_5.1.0 Kv=0.12 kva=1000.0 %r=0.006
~ wdg=3 bus=trip_node_632_A_5.0.2 Kv=0.12 kva=1000.0 %r=0.006 Xhl=2.04  Xht=2.04  Xlt=1.36

New Transformer.xfmr_632_B_1 phases=1 windings=3
~ wdg=1 bus=xfmr_meter_632_B_1.2 Kv=2.4 kva=10000.0 %r=0.003
~ wdg=2 bus=trip_node_632_B_1.1.0 Kv=0.12 kva=1000.0 %r=0.006
~ wdg=3 bus=trip_node_632_B_1.0.2 Kv=0.12 kva=1000.0 %r=0.006 Xhl=2.04  Xht=2.04  Xlt=1.36

New Transformer.xfmr_632_B_2 phases=1 windings=3
~ wdg=1 bus=xfmr_meter_632_B_2.2 Kv=2.4 kva=10000.0 %r=0.003
~ wdg=2 bus=trip_node_632_B_2.1.0 Kv=0.12 kva=1000.0 %r=0.006
~ wdg=3 bus=trip_node_632_B_2.0.2 Kv=0.12 kva=1000.0 %r=0.006 Xhl=2.04  Xht=2.04  Xlt=1.36

New Transformer.xfmr_632_B_3 phases=1 windings=3
~ wdg=1 bus=xfmr_meter_632_B_3.2 Kv=2.4 kva=10000.0 %r=0.003
~ wdg=2 bus=trip_node_632_B_3.1.0 Kv=0.12 kva=1000.0 %r=0.006
~ wdg=3 bus=trip_node_632_B_3.0.2 Kv=0.12 kva=1000.0 %r=0.006 Xhl=2.04  Xht=2.04  Xlt=1.36

New Transformer.xfmr_632_B_4 phases=1 windings=3
~ wdg=1 bus=xfmr_meter_632_B_4.2 Kv=2.4 kva=10000.0 %r=0.003
~ wdg=2 bus=trip_node_632_B_4.1.0 Kv=0.12 kva=1000.0 %r=0.006
~ wdg=3 bus=trip_node_632_B_4.0.2 Kv=0.12 kva=1000.0 %r=0.006 Xhl=2.04  Xht=2.04  Xlt=1.36

New Transformer.xfmr_632_B_5 phases=1 windings=3
~ wdg=1 bus=xfmr_meter_632_B_5.2 Kv=2.4 kva=10000.0 %r=0.003
~ wdg=2 bus=trip_node_632_B_5.1.0 Kv=0.12 kva=1000.0 %r=0.006
~ wdg=3 bus=trip_node_632_B_5.0.2 Kv=0.12 kva=1000.0 %r=0.006 Xhl=2.04  Xht=2.04  Xlt=1.36

New Transformer.xfmr_632_C_1 phases=1 windings=3
~ wdg=1 bus=xfmr_meter_632_C_1.3 Kv=2.4 kva=10000.0 %r=0.003
~ wdg=2 bus=trip_node_632_C_1.1.0 Kv=0.12 kva=1000.0 %r=0.006
~ wdg=3 bus=trip_node_632_C_1.0.2 Kv=0.12 kva=1000.0 %r=0.006 Xhl=2.04  Xht=2.04  Xlt=1.36

New Transformer.xfmr_632_C_2 phases=1 windings=3
~ wdg=1 bus=xfmr_meter_632_C_2.3 Kv=2.4 kva=10000.0 %r=0.003
~ wdg=2 bus=trip_node_632_C_2.1.0 Kv=0.12 kva=1000.0 %r=0.006
~ wdg=3 bus=trip_node_632_C_2.0.2 Kv=0.12 kva=1000.0 %r=0.006 Xhl=2.04  Xht=2.04  Xlt=1.36

New Transformer.xfmr_632_C_3 phases=1 windings=3
~ wdg=1 bus=xfmr_meter_632_C_3.3 Kv=2.4 kva=10000.0 %r=0.003
~ wdg=2 bus=trip_node_632_C_3.1.0 Kv=0.12 kva=1000.0 %r=0.006
~ wdg=3 bus=trip_node_632_C_3.0.2 Kv=0.12 kva=1000.0 %r=0.006 Xhl=2.04  Xht=2.04  Xlt=1.36

New Transformer.xfmr_632_C_4 phases=1 windings=3
~ wdg=1 bus=xfmr_meter_632_C_4.3 Kv=2.4 kva=10000.0 %r=0.003
~ wdg=2 bus=trip_node_632_C_4.1.0 Kv=0.12 kva=1000.0 %r=0.006
~ wdg=3 bus=trip_node_632_C_4.0.2 Kv=0.12 kva=1000.0 %r=0.006 Xhl=2.04  Xht=2.04  Xlt=1.36

New Transformer.xfmr_632_C_5 phases=1 windings=3
~ wdg=1 bus=xfmr_meter_632_C_5.3 Kv=2.4 kva=10000.0 %r=0.003
~ wdg=2 bus=trip_node_632_C_5.1.0 Kv=0.12 kva=1000.0 %r=0.006
~ wdg=3 bus=trip_node_632_C_5.0.2 Kv=0.12 kva=1000.0 %r=0.006 Xhl=2.04  Xht=2.04  Xlt=1.36

New Transformer.xfmr_692_A_1 phases=1 windings=3
~ wdg=1 bus=xfmr_meter_692_A_1.1 Kv=2.4 kva=10000.0 %r=0.003
~ wdg=2 bus=trip_node_692_A_1.1.0 Kv=0.12 kva=1000.0 %r=0.006
~ wdg=3 bus=trip_node_692_A_1.0.2 Kv=0.12 kva=1000.0 %r=0.006 Xhl=2.04  Xht=2.04  Xlt=1.36

New Transformer.xfmr_692_A_2 phases=1 windings=3
~ wdg=1 bus=xfmr_meter_692_A_2.1 Kv=2.4 kva=10000.0 %r=0.003
~ wdg=2 bus=trip_node_692_A_2.1.0 Kv=0.12 kva=1000.0 %r=0.006
~ wdg=3 bus=trip_node_692_A_2.0.2 Kv=0.12 kva=1000.0 %r=0.006 Xhl=2.04  Xht=2.04  Xlt=1.36

New Transformer.xfmr_692_A_3 phases=1 windings=3
~ wdg=1 bus=xfmr_meter_692_A_3.1 Kv=2.4 kva=10000.0 %r=0.003
~ wdg=2 bus=trip_node_692_A_3.1.0 Kv=0.12 kva=1000.0 %r=0.006
~ wdg=3 bus=trip_node_692_A_3.0.2 Kv=0.12 kva=1000.0 %r=0.006 Xhl=2.04  Xht=2.04  Xlt=1.36

New Transformer.xfmr_692_A_4 phases=1 windings=3
~ wdg=1 bus=xfmr_meter_692_A_4.1 Kv=2.4 kva=10000.0 %r=0.003
~ wdg=2 bus=trip_node_692_A_4.1.0 Kv=0.12 kva=1000.0 %r=0.006
~ wdg=3 bus=trip_node_692_A_4.0.2 Kv=0.12 kva=1000.0 %r=0.006 Xhl=2.04  Xht=2.04  Xlt=1.36

New Transformer.xfmr_692_A_5 phases=1 windings=3
~ wdg=1 bus=xfmr_meter_692_A_5.1 Kv=2.4 kva=10000.0 %r=0.003
~ wdg=2 bus=trip_node_692_A_5.1.0 Kv=0.12 kva=1000.0 %r=0.006
~ wdg=3 bus=trip_node_692_A_5.0.2 Kv=0.12 kva=1000.0 %r=0.006 Xhl=2.04  Xht=2.04  Xlt=1.36

New Transformer.xfmr_692_B_1 phases=1 windings=3
~ wdg=1 bus=xfmr_meter_692_B_1.2 Kv=2.4 kva=10000.0 %r=0.003
~ wdg=2 bus=trip_node_692_B_1.1.0 Kv=0.12 kva=1000.0 %r=0.006
~ wdg=3 bus=trip_node_692_B_1.0.2 Kv=0.12 kva=1000.0 %r=0.006 Xhl=2.04  Xht=2.04  Xlt=1.36

New Transformer.xfmr_692_B_2 phases=1 windings=3
~ wdg=1 bus=xfmr_meter_692_B_2.2 Kv=2.4 kva=10000.0 %r=0.003
~ wdg=2 bus=trip_node_692_B_2.1.0 Kv=0.12 kva=1000.0 %r=0.006
~ wdg=3 bus=trip_node_692_B_2.0.2 Kv=0.12 kva=1000.0 %r=0.006 Xhl=2.04  Xht=2.04  Xlt=1.36

New Transformer.xfmr_692_B_3 phases=1 windings=3
~ wdg=1 bus=xfmr_meter_692_B_3.2 Kv=2.4 kva=10000.0 %r=0.003
~ wdg=2 bus=trip_node_692_B_3.1.0 Kv=0.12 kva=1000.0 %r=0.006
~ wdg=3 bus=trip_node_692_B_3.0.2 Kv=0.12 kva=1000.0 %r=0.006 Xhl=2.04  Xht=2.04  Xlt=1.36

New Transformer.xfmr_692_B_4 phases=1 windings=3
~ wdg=1 bus=xfmr_meter_692_B_4.2 Kv=2.4 kva=10000.0 %r=0.003
~ wdg=2 bus=trip_node_692_B_4.1.0 Kv=0.12 kva=1000.0 %r=0.006
~ wdg=3 bus=trip_node_692_B_4.0.2 Kv=0.12 kva=1000.0 %r=0.006 Xhl=2.04  Xht=2.04  Xlt=1.36

New Transformer.xfmr_692_B_5 phases=1 windings=3
~ wdg=1 bus=xfmr_meter_692_B_5.2 Kv=2.4 kva=10000.0 %r=0.003
~ wdg=2 bus=trip_node_692_B_5.1.0 Kv=0.12 kva=1000.0 %r=0.006
~ wdg=3 bus=trip_node_692_B_5.0.2 Kv=0.12 kva=1000.0 %r=0.006 Xhl=2.04  Xht=2.04  Xlt=1.36

New Transformer.xfmr_692_C_1 phases=1 windings=3
~ wdg=1 bus=xfmr_meter_692_C_1.3 Kv=2.4 kva=10000.0 %r=0.003
~ wdg=2 bus=trip_node_692_C_1.1.0 Kv=0.12 kva=1000.0 %r=0.006
~ wdg=3 bus=trip_node_692_C_1.0.2 Kv=0.12 kva=1000.0 %r=0.006 Xhl=2.04  Xht=2.04  Xlt=1.36

New Transformer.xfmr_692_C_2 phases=1 windings=3
~ wdg=1 bus=xfmr_meter_692_C_2.3 Kv=2.4 kva=10000.0 %r=0.003
~ wdg=2 bus=trip_node_692_C_2.1.0 Kv=0.12 kva=1000.0 %r=0.006
~ wdg=3 bus=trip_node_692_C_2.0.2 Kv=0.12 kva=1000.0 %r=0.006 Xhl=2.04  Xht=2.04  Xlt=1.36

New Transformer.xfmr_692_C_3 phases=1 windings=3
~ wdg=1 bus=xfmr_meter_692_C_3.3 Kv=2.4 kva=10000.0 %r=0.003
~ wdg=2 bus=trip_node_692_C_3.1.0 Kv=0.12 kva=1000.0 %r=0.006
~ wdg=3 bus=trip_node_692_C_3.0.2 Kv=0.12 kva=1000.0 %r=0.006 Xhl=2.04  Xht=2.04  Xlt=1.36

New Transformer.xfmr_692_C_4 phases=1 windings=3
~ wdg=1 bus=xfmr_meter_692_C_4.3 Kv=2.4 kva=10000.0 %r=0.003
~ wdg=2 bus=trip_node_692_C_4.1.0 Kv=0.12 kva=1000.0 %r=0.006
~ wdg=3 bus=trip_node_692_C_4.0.2 Kv=0.12 kva=1000.0 %r=0.006 Xhl=2.04  Xht=2.04  Xlt=1.36

New Transformer.xfmr_692_C_5 phases=1 windings=3
~ wdg=1 bus=xfmr_meter_692_C_5.3 Kv=2.4 kva=10000.0 %r=0.003
~ wdg=2 bus=trip_node_692_C_5.1.0 Kv=0.12 kva=1000.0 %r=0.006
~ wdg=3 bus=trip_node_692_C_5.0.2 Kv=0.12 kva=1000.0 %r=0.006 Xhl=2.04  Xht=2.04  Xlt=1.36

New Transformer.xfmr_675_A_1 phases=1 windings=3
~ wdg=1 bus=xfmr_meter_675_A_1.1 Kv=2.4 kva=10000.0 %r=0.003
~ wdg=2 bus=trip_node_675_A_1.1.0 Kv=0.12 kva=1000.0 %r=0.006
~ wdg=3 bus=trip_node_675_A_1.0.2 Kv=0.12 kva=1000.0 %r=0.006 Xhl=2.04  Xht=2.04  Xlt=1.36

New Transformer.xfmr_675_A_2 phases=1 windings=3
~ wdg=1 bus=xfmr_meter_675_A_2.1 Kv=2.4 kva=10000.0 %r=0.003
~ wdg=2 bus=trip_node_675_A_2.1.0 Kv=0.12 kva=1000.0 %r=0.006
~ wdg=3 bus=trip_node_675_A_2.0.2 Kv=0.12 kva=1000.0 %r=0.006 Xhl=2.04  Xht=2.04  Xlt=1.36

New Transformer.xfmr_675_A_3 phases=1 windings=3
~ wdg=1 bus=xfmr_meter_675_A_3.1 Kv=2.4 kva=10000.0 %r=0.003
~ wdg=2 bus=trip_node_675_A_3.1.0 Kv=0.12 kva=1000.0 %r=0.006
~ wdg=3 bus=trip_node_675_A_3.0.2 Kv=0.12 kva=1000.0 %r=0.006 Xhl=2.04  Xht=2.04  Xlt=1.36

New Transformer.xfmr_675_A_4 phases=1 windings=3
~ wdg=1 bus=xfmr_meter_675_A_4.1 Kv=2.4 kva=10000.0 %r=0.003
~ wdg=2 bus=trip_node_675_A_4.1.0 Kv=0.12 kva=1000.0 %r=0.006
~ wdg=3 bus=trip_node_675_A_4.0.2 Kv=0.12 kva=1000.0 %r=0.006 Xhl=2.04  Xht=2.04  Xlt=1.36

New Transformer.xfmr_675_A_5 phases=1 windings=3
~ wdg=1 bus=xfmr_meter_675_A_5.1 Kv=2.4 kva=10000.0 %r=0.003
~ wdg=2 bus=trip_node_675_A_5.1.0 Kv=0.12 kva=1000.0 %r=0.006
~ wdg=3 bus=trip_node_675_A_5.0.2 Kv=0.12 kva=1000.0 %r=0.006 Xhl=2.04  Xht=2.04  Xlt=1.36

New Transformer.xfmr_675_B_1 phases=1 windings=3
~ wdg=1 bus=xfmr_meter_675_B_1.2 Kv=2.4 kva=10000.0 %r=0.003
~ wdg=2 bus=trip_node_675_B_1.1.0 Kv=0.12 kva=1000.0 %r=0.006
~ wdg=3 bus=trip_node_675_B_1.0.2 Kv=0.12 kva=1000.0 %r=0.006 Xhl=2.04  Xht=2.04  Xlt=1.36

New Transformer.xfmr_675_B_2 phases=1 windings=3
~ wdg=1 bus=xfmr_meter_675_B_2.2 Kv=2.4 kva=10000.0 %r=0.003
~ wdg=2 bus=trip_node_675_B_2.1.0 Kv=0.12 kva=1000.0 %r=0.006
~ wdg=3 bus=trip_node_675_B_2.0.2 Kv=0.12 kva=1000.0 %r=0.006 Xhl=2.04  Xht=2.04  Xlt=1.36

New Transformer.xfmr_675_B_3 phases=1 windings=3
~ wdg=1 bus=xfmr_meter_675_B_3.2 Kv=2.4 kva=10000.0 %r=0.003
~ wdg=2 bus=trip_node_675_B_3.1.0 Kv=0.12 kva=1000.0 %r=0.006
~ wdg=3 bus=trip_node_675_B_3.0.2 Kv=0.12 kva=1000.0 %r=0.006 Xhl=2.04  Xht=2.04  Xlt=1.36

New Transformer.xfmr_675_B_4 phases=1 windings=3
~ wdg=1 bus=xfmr_meter_675_B_4.2 Kv=2.4 kva=10000.0 %r=0.003
~ wdg=2 bus=trip_node_675_B_4.1.0 Kv=0.12 kva=1000.0 %r=0.006
~ wdg=3 bus=trip_node_675_B_4.0.2 Kv=0.12 kva=1000.0 %r=0.006 Xhl=2.04  Xht=2.04  Xlt=1.36

New Transformer.xfmr_675_B_5 phases=1 windings=3
~ wdg=1 bus=xfmr_meter_675_B_5.2 Kv=2.4 kva=10000.0 %r=0.003
~ wdg=2 bus=trip_node_675_B_5.1.0 Kv=0.12 kva=1000.0 %r=0.006
~ wdg=3 bus=trip_node_675_B_5.0.2 Kv=0.12 kva=1000.0 %r=0.006 Xhl=2.04  Xht=2.04  Xlt=1.36

New Transformer.xfmr_675_C_1 phases=1 windings=3
~ wdg=1 bus=xfmr_meter_675_C_1.3 Kv=2.4 kva=10000.0 %r=0.003
~ wdg=2 bus=trip_node_675_C_1.1.0 Kv=0.12 kva=1000.0 %r=0.006
~ wdg=3 bus=trip_node_675_C_1.0.2 Kv=0.12 kva=1000.0 %r=0.006 Xhl=2.04  Xht=2.04  Xlt=1.36

New Transformer.xfmr_675_C_2 phases=1 windings=3
~ wdg=1 bus=xfmr_meter_675_C_2.3 Kv=2.4 kva=10000.0 %r=0.003
~ wdg=2 bus=trip_node_675_C_2.1.0 Kv=0.12 kva=1000.0 %r=0.006
~ wdg=3 bus=trip_node_675_C_2.0.2 Kv=0.12 kva=1000.0 %r=0.006 Xhl=2.04  Xht=2.04  Xlt=1.36

New Transformer.xfmr_675_C_3 phases=1 windings=3
~ wdg=1 bus=xfmr_meter_675_C_3.3 Kv=2.4 kva=10000.0 %r=0.003
~ wdg=2 bus=trip_node_675_C_3.1.0 Kv=0.12 kva=1000.0 %r=0.006
~ wdg=3 bus=trip_node_675_C_3.0.2 Kv=0.12 kva=1000.0 %r=0.006 Xhl=2.04  Xht=2.04  Xlt=1.36

New Transformer.xfmr_675_C_4 phases=1 windings=3
~ wdg=1 bus=xfmr_meter_675_C_4.3 Kv=2.4 kva=10000.0 %r=0.003
~ wdg=2 bus=trip_node_675_C_4.1.0 Kv=0.12 kva=1000.0 %r=0.006
~ wdg=3 bus=trip_node_675_C_4.0.2 Kv=0.12 kva=1000.0 %r=0.006 Xhl=2.04  Xht=2.04  Xlt=1.36

New Transformer.xfmr_675_C_5 phases=1 windings=3
~ wdg=1 bus=xfmr_meter_675_C_5.3 Kv=2.4 kva=10000.0 %r=0.003
~ wdg=2 bus=trip_node_675_C_5.1.0 Kv=0.12 kva=1000.0 %r=0.006
~ wdg=3 bus=trip_node_675_C_5.0.2 Kv=0.12 kva=1000.0 %r=0.006 Xhl=2.04  Xht=2.04  Xlt=1.36

New Transformer.xfmr_671_A_1 phases=1 windings=3
~ wdg=1 bus=xfmr_meter_671_A_1.1 Kv=2.4 kva=10000.0 %r=0.003
~ wdg=2 bus=trip_node_671_A_1.1.0 Kv=0.12 kva=1000.0 %r=0.006
~ wdg=3 bus=trip_node_671_A_1.0.2 Kv=0.12 kva=1000.0 %r=0.006 Xhl=2.04  Xht=2.04  Xlt=1.36

New Transformer.xfmr_671_A_2 phases=1 windings=3
~ wdg=1 bus=xfmr_meter_671_A_2.1 Kv=2.4 kva=10000.0 %r=0.003
~ wdg=2 bus=trip_node_671_A_2.1.0 Kv=0.12 kva=1000.0 %r=0.006
~ wdg=3 bus=trip_node_671_A_2.0.2 Kv=0.12 kva=1000.0 %r=0.006 Xhl=2.04  Xht=2.04  Xlt=1.36

New Transformer.xfmr_671_A_3 phases=1 windings=3
~ wdg=1 bus=xfmr_meter_671_A_3.1 Kv=2.4 kva=10000.0 %r=0.003
~ wdg=2 bus=trip_node_671_A_3.1.0 Kv=0.12 kva=1000.0 %r=0.006
~ wdg=3 bus=trip_node_671_A_3.0.2 Kv=0.12 kva=1000.0 %r=0.006 Xhl=2.04  Xht=2.04  Xlt=1.36

New Transformer.xfmr_671_A_4 phases=1 windings=3
~ wdg=1 bus=xfmr_meter_671_A_4.1 Kv=2.4 kva=10000.0 %r=0.003
~ wdg=2 bus=trip_node_671_A_4.1.0 Kv=0.12 kva=1000.0 %r=0.006
~ wdg=3 bus=trip_node_671_A_4.0.2 Kv=0.12 kva=1000.0 %r=0.006 Xhl=2.04  Xht=2.04  Xlt=1.36

New Transformer.xfmr_671_A_5 phases=1 windings=3
~ wdg=1 bus=xfmr_meter_671_A_5.1 Kv=2.4 kva=10000.0 %r=0.003
~ wdg=2 bus=trip_node_671_A_5.1.0 Kv=0.12 kva=1000.0 %r=0.006
~ wdg=3 bus=trip_node_671_A_5.0.2 Kv=0.12 kva=1000.0 %r=0.006 Xhl=2.04  Xht=2.04  Xlt=1.36

New Transformer.xfmr_671_B_1 phases=1 windings=3
~ wdg=1 bus=xfmr_meter_671_B_1.2 Kv=2.4 kva=10000.0 %r=0.003
~ wdg=2 bus=trip_node_671_B_1.1.0 Kv=0.12 kva=1000.0 %r=0.006
~ wdg=3 bus=trip_node_671_B_1.0.2 Kv=0.12 kva=1000.0 %r=0.006 Xhl=2.04  Xht=2.04  Xlt=1.36

New Transformer.xfmr_671_B_2 phases=1 windings=3
~ wdg=1 bus=xfmr_meter_671_B_2.2 Kv=2.4 kva=10000.0 %r=0.003
~ wdg=2 bus=trip_node_671_B_2.1.0 Kv=0.12 kva=1000.0 %r=0.006
~ wdg=3 bus=trip_node_671_B_2.0.2 Kv=0.12 kva=1000.0 %r=0.006 Xhl=2.04  Xht=2.04  Xlt=1.36

New Transformer.xfmr_671_B_3 phases=1 windings=3
~ wdg=1 bus=xfmr_meter_671_B_3.2 Kv=2.4 kva=10000.0 %r=0.003
~ wdg=2 bus=trip_node_671_B_3.1.0 Kv=0.12 kva=1000.0 %r=0.006
~ wdg=3 bus=trip_node_671_B_3.0.2 Kv=0.12 kva=1000.0 %r=0.006 Xhl=2.04  Xht=2.04  Xlt=1.36

New Transformer.xfmr_671_B_4 phases=1 windings=3
~ wdg=1 bus=xfmr_meter_671_B_4.2 Kv=2.4 kva=10000.0 %r=0.003
~ wdg=2 bus=trip_node_671_B_4.1.0 Kv=0.12 kva=1000.0 %r=0.006
~ wdg=3 bus=trip_node_671_B_4.0.2 Kv=0.12 kva=1000.0 %r=0.006 Xhl=2.04  Xht=2.04  Xlt=1.36

New Transformer.xfmr_671_B_5 phases=1 windings=3
~ wdg=1 bus=xfmr_meter_671_B_5.2 Kv=2.4 kva=10000.0 %r=0.003
~ wdg=2 bus=trip_node_671_B_5.1.0 Kv=0.12 kva=1000.0 %r=0.006
~ wdg=3 bus=trip_node_671_B_5.0.2 Kv=0.12 kva=1000.0 %r=0.006 Xhl=2.04  Xht=2.04  Xlt=1.36

New Transformer.xfmr_671_C_1 phases=1 windings=3
~ wdg=1 bus=xfmr_meter_671_C_1.3 Kv=2.4 kva=10000.0 %r=0.003
~ wdg=2 bus=trip_node_671_C_1.1.0 Kv=0.12 kva=1000.0 %r=0.006
~ wdg=3 bus=trip_node_671_C_1.0.2 Kv=0.12 kva=1000.0 %r=0.006 Xhl=2.04  Xht=2.04  Xlt=1.36

New Transformer.xfmr_671_C_2 phases=1 windings=3
~ wdg=1 bus=xfmr_meter_671_C_2.3 Kv=2.4 kva=10000.0 %r=0.003
~ wdg=2 bus=trip_node_671_C_2.1.0 Kv=0.12 kva=1000.0 %r=0.006
~ wdg=3 bus=trip_node_671_C_2.0.2 Kv=0.12 kva=1000.0 %r=0.006 Xhl=2.04  Xht=2.04  Xlt=1.36

New Transformer.xfmr_671_C_3 phases=1 windings=3
~ wdg=1 bus=xfmr_meter_671_C_3.3 Kv=2.4 kva=10000.0 %r=0.003
~ wdg=2 bus=trip_node_671_C_3.1.0 Kv=0.12 kva=1000.0 %r=0.006
~ wdg=3 bus=trip_node_671_C_3.0.2 Kv=0.12 kva=1000.0 %r=0.006 Xhl=2.04  Xht=2.04  Xlt=1.36

New Transformer.xfmr_671_C_4 phases=1 windings=3
~ wdg=1 bus=xfmr_meter_671_C_4.3 Kv=2.4 kva=10000.0 %r=0.003
~ wdg=2 bus=trip_node_671_C_4.1.0 Kv=0.12 kva=1000.0 %r=0.006
~ wdg=3 bus=trip_node_671_C_4.0.2 Kv=0.12 kva=1000.0 %r=0.006 Xhl=2.04  Xht=2.04  Xlt=1.36

New Transformer.xfmr_671_C_5 phases=1 windings=3
~ wdg=1 bus=xfmr_meter_671_C_5.3 Kv=2.4 kva=10000.0 %r=0.003
~ wdg=2 bus=trip_node_671_C_5.1.0 Kv=0.12 kva=1000.0 %r=0.006
~ wdg=3 bus=trip_node_671_C_5.0.2 Kv=0.12 kva=1000.0 %r=0.006 Xhl=2.04  Xht=2.04  Xlt=1.36

New Transformer.xfmr_680_A_1 phases=1 windings=3
~ wdg=1 bus=xfmr_meter_680_A_1.1 Kv=2.4 kva=10000.0 %r=0.003
~ wdg=2 bus=trip_node_680_A_1.1.0 Kv=0.12 kva=1000.0 %r=0.006
~ wdg=3 bus=trip_node_680_A_1.0.2 Kv=0.12 kva=1000.0 %r=0.006 Xhl=2.04  Xht=2.04  Xlt=1.36

New Transformer.xfmr_680_A_2 phases=1 windings=3
~ wdg=1 bus=xfmr_meter_680_A_2.1 Kv=2.4 kva=10000.0 %r=0.003
~ wdg=2 bus=trip_node_680_A_2.1.0 Kv=0.12 kva=1000.0 %r=0.006
~ wdg=3 bus=trip_node_680_A_2.0.2 Kv=0.12 kva=1000.0 %r=0.006 Xhl=2.04  Xht=2.04  Xlt=1.36

New Transformer.xfmr_680_A_3 phases=1 windings=3
~ wdg=1 bus=xfmr_meter_680_A_3.1 Kv=2.4 kva=10000.0 %r=0.003
~ wdg=2 bus=trip_node_680_A_3.1.0 Kv=0.12 kva=1000.0 %r=0.006
~ wdg=3 bus=trip_node_680_A_3.0.2 Kv=0.12 kva=1000.0 %r=0.006 Xhl=2.04  Xht=2.04  Xlt=1.36

New Transformer.xfmr_680_A_4 phases=1 windings=3
~ wdg=1 bus=xfmr_meter_680_A_4.1 Kv=2.4 kva=10000.0 %r=0.003
~ wdg=2 bus=trip_node_680_A_4.1.0 Kv=0.12 kva=1000.0 %r=0.006
~ wdg=3 bus=trip_node_680_A_4.0.2 Kv=0.12 kva=1000.0 %r=0.006 Xhl=2.04  Xht=2.04  Xlt=1.36

New Transformer.xfmr_680_A_5 phases=1 windings=3
~ wdg=1 bus=xfmr_meter_680_A_5.1 Kv=2.4 kva=10000.0 %r=0.003
~ wdg=2 bus=trip_node_680_A_5.1.0 Kv=0.12 kva=1000.0 %r=0.006
~ wdg=3 bus=trip_node_680_A_5.0.2 Kv=0.12 kva=1000.0 %r=0.006 Xhl=2.04  Xht=2.04  Xlt=1.36

New Transformer.xfmr_680_B_1 phases=1 windings=3
~ wdg=1 bus=xfmr_meter_680_B_1.2 Kv=2.4 kva=10000.0 %r=0.003
~ wdg=2 bus=trip_node_680_B_1.1.0 Kv=0.12 kva=1000.0 %r=0.006
~ wdg=3 bus=trip_node_680_B_1.0.2 Kv=0.12 kva=1000.0 %r=0.006 Xhl=2.04  Xht=2.04  Xlt=1.36

New Transformer.xfmr_680_B_2 phases=1 windings=3
~ wdg=1 bus=xfmr_meter_680_B_2.2 Kv=2.4 kva=10000.0 %r=0.003
~ wdg=2 bus=trip_node_680_B_2.1.0 Kv=0.12 kva=1000.0 %r=0.006
~ wdg=3 bus=trip_node_680_B_2.0.2 Kv=0.12 kva=1000.0 %r=0.006 Xhl=2.04  Xht=2.04  Xlt=1.36

New Transformer.xfmr_680_B_3 phases=1 windings=3
~ wdg=1 bus=xfmr_meter_680_B_3.2 Kv=2.4 kva=10000.0 %r=0.003
~ wdg=2 bus=trip_node_680_B_3.1.0 Kv=0.12 kva=1000.0 %r=0.006
~ wdg=3 bus=trip_node_680_B_3.0.2 Kv=0.12 kva=1000.0 %r=0.006 Xhl=2.04  Xht=2.04  Xlt=1.36

New Transformer.xfmr_680_B_4 phases=1 windings=3
~ wdg=1 bus=xfmr_meter_680_B_4.2 Kv=2.4 kva=10000.0 %r=0.003
~ wdg=2 bus=trip_node_680_B_4.1.0 Kv=0.12 kva=1000.0 %r=0.006
~ wdg=3 bus=trip_node_680_B_4.0.2 Kv=0.12 kva=1000.0 %r=0.006 Xhl=2.04  Xht=2.04  Xlt=1.36

New Transformer.xfmr_680_B_5 phases=1 windings=3
~ wdg=1 bus=xfmr_meter_680_B_5.2 Kv=2.4 kva=10000.0 %r=0.003
~ wdg=2 bus=trip_node_680_B_5.1.0 Kv=0.12 kva=1000.0 %r=0.006
~ wdg=3 bus=trip_node_680_B_5.0.2 Kv=0.12 kva=1000.0 %r=0.006 Xhl=2.04  Xht=2.04  Xlt=1.36

New Transformer.xfmr_680_C_1 phases=1 windings=3
~ wdg=1 bus=xfmr_meter_680_C_1.3 Kv=2.4 kva=10000.0 %r=0.003
~ wdg=2 bus=trip_node_680_C_1.1.0 Kv=0.12 kva=1000.0 %r=0.006
~ wdg=3 bus=trip_node_680_C_1.0.2 Kv=0.12 kva=1000.0 %r=0.006 Xhl=2.04  Xht=2.04  Xlt=1.36

New Transformer.xfmr_680_C_2 phases=1 windings=3
~ wdg=1 bus=xfmr_meter_680_C_2.3 Kv=2.4 kva=10000.0 %r=0.003
~ wdg=2 bus=trip_node_680_C_2.1.0 Kv=0.12 kva=1000.0 %r=0.006
~ wdg=3 bus=trip_node_680_C_2.0.2 Kv=0.12 kva=1000.0 %r=0.006 Xhl=2.04  Xht=2.04  Xlt=1.36

New Transformer.xfmr_680_C_3 phases=1 windings=3
~ wdg=1 bus=xfmr_meter_680_C_3.3 Kv=2.4 kva=10000.0 %r=0.003
~ wdg=2 bus=trip_node_680_C_3.1.0 Kv=0.12 kva=1000.0 %r=0.006
~ wdg=3 bus=trip_node_680_C_3.0.2 Kv=0.12 kva=1000.0 %r=0.006 Xhl=2.04  Xht=2.04  Xlt=1.36

New Transformer.xfmr_680_C_4 phases=1 windings=3
~ wdg=1 bus=xfmr_meter_680_C_4.3 Kv=2.4 kva=10000.0 %r=0.003
~ wdg=2 bus=trip_node_680_C_4.1.0 Kv=0.12 kva=1000.0 %r=0.006
~ wdg=3 bus=trip_node_680_C_4.0.2 Kv=0.12 kva=1000.0 %r=0.006 Xhl=2.04  Xht=2.04  Xlt=1.36

New Transformer.xfmr_680_C_5 phases=1 windings=3
~ wdg=1 bus=xfmr_meter_680_C_5.3 Kv=2.4 kva=10000.0 %r=0.003
~ wdg=2 bus=trip_node_680_C_5.1.0 Kv=0.12 kva=1000.0 %r=0.006
~ wdg=3 bus=trip_node_680_C_5.0.2 Kv=0.12 kva=1000.0 %r=0.006 Xhl=2.04  Xht=2.04  Xlt=1.36

New storage.trip_load_680_A_1_Battery  bus1=trip_node_680_A_1.1.2  phases=2 Conn=Wye  kV=0.208 kW=0 kwhstored=250.0 kwhrated=500.0 pf=1.0
New storage.trip_load_680_A_2_Battery  bus1=trip_node_680_A_1.1.2  phases=2 Conn=Wye  kV=0.208 kW=0 kwhstored=250.0 kwhrated=500.0 pf=1.0
New storage.trip_load_680_A_3_Battery  bus1=trip_node_680_A_1.1.2  phases=2 Conn=Wye  kV=0.208 kW=0 kwhstored=250.0 kwhrated=500.0 pf=1.0
New storage.trip_load_680_A_4_Battery  bus1=trip_node_680_A_1.1.2  phases=2 Conn=Wye  kV=0.208 kW=0 kwhstored=250.0 kwhrated=500.0 pf=1.0
New storage.trip_load_680_A_5_Battery  bus1=trip_node_680_A_1.1.2  phases=2 Conn=Wye  kV=0.208 kW=0 kwhstored=250.0 kwhrated=500.0 pf=1.0
New storage.trip_load_680_A_6_Battery  bus1=trip_node_680_A_1.1.2  phases=2 Conn=Wye  kV=0.208 kW=0 kwhstored=250.0 kwhrated=500.0 pf=1.0
New storage.trip_load_680_A_7_Battery  bus1=trip_node_680_A_1.1.2  phases=2 Conn=Wye  kV=0.208 kW=0 kwhstored=250.0 kwhrated=500.0 pf=1.0
New storage.trip_load_680_A_8_Battery  bus1=trip_node_680_A_1.1.2  phases=2 Conn=Wye  kV=0.208 kW=0 kwhstored=250.0 kwhrated=500.0 pf=1.0
New storage.trip_load_680_A_9_Battery  bus1=trip_node_680_A_2.1.2  phases=2 Conn=Wye  kV=0.208 kW=0 kwhstored=250.0 kwhrated=500.0 pf=1.0
New storage.trip_load_680_A_10_Battery bus1=trip_node_680_A_2.1.2   phases=2 Conn=Wye  kV=0.208 kW=0 kwhstored=250.0 kwhrated=500.0 pf=1.0
New storage.trip_load_680_A_11_Battery bus1=trip_node_680_A_2.1.2   phases=2 Conn=Wye  kV=0.208 kW=0 kwhstored=250.0 kwhrated=500.0 pf=1.0
New storage.trip_load_680_A_12_Battery bus1=trip_node_680_A_2.1.2   phases=2 Conn=Wye  kV=0.208 kW=0 kwhstored=250.0 kwhrated=500.0 pf=1.0
New storage.trip_load_680_A_13_Battery bus1=trip_node_680_A_2.1.2   phases=2 Conn=Wye  kV=0.208 kW=0 kwhstored=250.0 kwhrated=500.0 pf=1.0
New storage.trip_load_680_A_14_Battery bus1=trip_node_680_A_2.1.2   phases=2 Conn=Wye  kV=0.208 kW=0 kwhstored=250.0 kwhrated=500.0 pf=1.0
New storage.trip_load_680_A_15_Battery bus1=trip_node_680_A_2.1.2   phases=2 Conn=Wye  kV=0.208 kW=0 kwhstored=250.0 kwhrated=500.0 pf=1.0
New storage.trip_load_680_A_16_Battery bus1=trip_node_680_A_2.1.2   phases=2 Conn=Wye  kV=0.208 kW=0 kwhstored=250.0 kwhrated=500.0 pf=1.0
New storage.trip_load_680_A_17_Battery bus1=trip_node_680_A_3.1.2   phases=2 Conn=Wye  kV=0.208 kW=0 kwhstored=250.0 kwhrated=500.0 pf=1.0
New storage.trip_load_680_A_18_Battery bus1=trip_node_680_A_3.1.2   phases=2 Conn=Wye  kV=0.208 kW=0 kwhstored=250.0 kwhrated=500.0 pf=1.0
New storage.trip_load_680_A_19_Battery bus1=trip_node_680_A_3.1.2   phases=2 Conn=Wye  kV=0.208 kW=0 kwhstored=250.0 kwhrated=500.0 pf=1.0
New storage.trip_load_680_A_20_Battery bus1=trip_node_680_A_3.1.2   phases=2 Conn=Wye  kV=0.208 kW=0 kwhstored=250.0 kwhrated=500.0 pf=1.0
New storage.trip_load_680_A_21_Battery bus1=trip_node_680_A_3.1.2   phases=2 Conn=Wye  kV=0.208 kW=0 kwhstored=250.0 kwhrated=500.0 pf=1.0
New storage.trip_load_680_A_22_Battery bus1=trip_node_680_A_3.1.2   phases=2 Conn=Wye  kV=0.208 kW=0 kwhstored=250.0 kwhrated=500.0 pf=1.0
New storage.trip_load_680_A_23_Battery bus1=trip_node_680_A_3.1.2   phases=2 Conn=Wye  kV=0.208 kW=0 kwhstored=250.0 kwhrated=500.0 pf=1.0
New storage.trip_load_680_A_24_Battery bus1=trip_node_680_A_3.1.2   phases=2 Conn=Wye  kV=0.208 kW=0 kwhstored=250.0 kwhrated=500.0 pf=1.0
New storage.trip_load_680_A_25_Battery bus1=trip_node_680_A_4.1.2   phases=2 Conn=Wye  kV=0.208 kW=0 kwhstored=250.0 kwhrated=500.0 pf=1.0
New storage.trip_load_680_A_26_Battery bus1=trip_node_680_A_4.1.2   phases=2 Conn=Wye  kV=0.208 kW=0 kwhstored=250.0 kwhrated=500.0 pf=1.0
New storage.trip_load_680_A_27_Battery bus1=trip_node_680_A_4.1.2   phases=2 Conn=Wye  kV=0.208 kW=0 kwhstored=250.0 kwhrated=500.0 pf=1.0
...